!- Windows Line endings

  Version,23.1;

  SimulationControl,
    Yes,                     !- Do Zone Sizing Calculation
    Yes,                     !- Do System Sizing Calculation
    No,                      !- Do Plant Sizing Calculation
    No,                      !- Run Simulation for Sizing Periods
    Yes,                     !- Run Simulation for Weather File Run Periods
    ,                        !- Do HVAC Sizing Simulation for Sizing Periods
    ;                        !- Maximum Number of HVAC Sizing Simulation Passes

  Building,
    Edificio Residencial,    !- Name
    0,                       !- North Axis {deg}
    Suburbs,                 !- Terrain
    0.04,                    !- Loads Convergence Tolerance Value {W}
    0.4,                     !- Temperature Convergence Tolerance Value {deltaC}
    FullExterior,            !- Solar Distribution
    25,                      !- Maximum Number of Warmup Days
    6;                       !- Minimum Number of Warmup Days

  ShadowCalculation,
    PolygonClipping,         !- Shading Calculation Method
    Periodic,                !- Shading Calculation Update Frequency Method
    20,                      !- Shading Calculation Update Frequency
    15000,                   !- Maximum Figures in Shadow Overlap Calculations
    SutherlandHodgman,       !- Polygon Clipping Algorithm
    ,                        !- Pixel Counting Resolution
    SimpleSkyDiffuseModeling;!- Sky Diffuse Modeling Algorithm

  SurfaceConvectionAlgorithm:Inside,TARP;

  SurfaceConvectionAlgorithm:Outside,DOE-2;

  HeatBalanceAlgorithm,ConductionTransferFunction,2000,0.00000001,1000;

  ZoneCapacitanceMultiplier:ResearchSpecial,
    All,                     !- Name
    ,                        !- Zone or ZoneList Name
    1,                       !- Temperature Capacity Multiplier
    1,                       !- Humidity Capacity Multiplier
    1,                       !- Carbon Dioxide Capacity Multiplier
    1;                       !- Generic Contaminant Capacity Multiplier

  Timestep,6;

  ConvergenceLimits,
    1,                       !- Minimum System Timestep {minutes}
    25;                      !- Maximum HVAC Iterations

  Site:Location,
    Sitio (01-01:31-12)  (01-01:31-12),  !- Name
    -36.77,                  !- Latitude {deg}
    -73.07,                  !- Longitude {deg}
    -4,                      !- Time Zone {hr}
    148;                     !- Elevation {m}

  SizingPeriod:DesignDay,
    Summer Design Day in Sitio (01-01:31-12) Jul,  !- Name
    7,                       !- Month
    15,                      !- Day of Month
    SummerDesignDay,         !- Day Type
    24.4,                    !- Maximum Dry-Bulb Temperature {C}
    11.1,                    !- Daily Dry-Bulb Temperature Range {deltaC}
    ,                        !- Dry-Bulb Temperature Range Modifier Type
    ,                        !- Dry-Bulb Temperature Range Modifier Day Schedule Name
    WetBulb,                 !- Humidity Condition Type
    17.2,                    !- Wetbulb or DewPoint at Maximum Dry-Bulb {C}
    ,                        !- Humidity Condition Day Schedule Name
    ,                        !- Humidity Ratio at Maximum Dry-Bulb {kgWater/kgDryAir}
    ,                        !- Enthalpy at Maximum Dry-Bulb {J/kg}
    ,                        !- Daily Wet-Bulb Temperature Range {deltaC}
    99559.6,                 !- Barometric Pressure {Pa}
    0,                       !- Wind Speed {m/s}
    0,                       !- Wind Direction {deg}
    No,                      !- Rain Indicator
    No,                      !- Snow Indicator
    No,                      !- Daylight Saving Time Indicator
    ASHRAEClearSky,          !- Solar Model Indicator
    ,                        !- Beam Solar Day Schedule Name
    ,                        !- Diffuse Solar Day Schedule Name
    ,                        !- ASHRAE Clear Sky Optical Depth for Beam Irradiance (taub) {dimensionless}
    ,                        !- ASHRAE Clear Sky Optical Depth for Diffuse Irradiance (taud) {dimensionless}
    0.98;                    !- Sky Clearness

  SizingPeriod:DesignDay,
    Winter Design Day in Sitio (01-01:31-12),  !- Name
    7,                       !- Month
    15,                      !- Day of Month
    WinterDesignDay,         !- Day Type
    1.2,                     !- Maximum Dry-Bulb Temperature {C}
    0,                       !- Daily Dry-Bulb Temperature Range {deltaC}
    ,                        !- Dry-Bulb Temperature Range Modifier Type
    ,                        !- Dry-Bulb Temperature Range Modifier Day Schedule Name
    WetBulb,                 !- Humidity Condition Type
    1.2,                     !- Wetbulb or DewPoint at Maximum Dry-Bulb {C}
    ,                        !- Humidity Condition Day Schedule Name
    ,                        !- Humidity Ratio at Maximum Dry-Bulb {kgWater/kgDryAir}
    ,                        !- Enthalpy at Maximum Dry-Bulb {J/kg}
    ,                        !- Daily Wet-Bulb Temperature Range {deltaC}
    99559.6,                 !- Barometric Pressure {Pa}
    17.4,                    !- Wind Speed {m/s}
    0,                       !- Wind Direction {deg}
    No,                      !- Rain Indicator
    No,                      !- Snow Indicator
    No,                      !- Daylight Saving Time Indicator
    ,                        !- Solar Model Indicator
    ,                        !- Beam Solar Day Schedule Name
    ,                        !- Diffuse Solar Day Schedule Name
    ,                        !- ASHRAE Clear Sky Optical Depth for Beam Irradiance (taub) {dimensionless}
    ,                        !- ASHRAE Clear Sky Optical Depth for Diffuse Irradiance (taud) {dimensionless}
    0;                       !- Sky Clearness

  RunPeriod,
    Sitio (01-01:31-12),     !- Name
    1,                       !- Begin Month
    1,                       !- Begin Day of Month
    ,                        !- Begin Year
    12,                      !- End Month
    31,                      !- End Day of Month
    ,                        !- End Year
    Monday,                  !- Day of Week for Start Day
    No,                      !- Use Weather File Holidays and Special Days
    Yes,                     !- Use Weather File Daylight Saving Period
    Yes,                     !- Apply Weekend Holiday Rule
    Yes,                     !- Use Weather File Rain Indicators
    Yes,                     !- Use Weather File Snow Indicators
    No;                      !- Treat Weather as Actual

  RunPeriodControl:SpecialDays,
    New Years Day,           !- Name
    1 Jan,                   !- Start Date
    1,                       !- Duration {days}
    Holiday;                 !- Special Day Type

  RunPeriodControl:SpecialDays,
    Christmas Day,           !- Name
    25 Dec,                  !- Start Date
    1,                       !- Duration {days}
    Holiday;                 !- Special Day Type

  RunPeriodControl:SpecialDays,
    Boxing Day,              !- Name
    26 Dec,                  !- Start Date
    1,                       !- Duration {days}
    Holiday;                 !- Special Day Type

  RunPeriodControl:SpecialDays,
    Easter Monday,           !- Name
    2nd Monday in April,     !- Start Date
    1,                       !- Duration {days}
    Holiday;                 !- Special Day Type

  RunPeriodControl:SpecialDays,
    Easter Sunday,           !- Name
    1st Sunday in April,     !- Start Date
    1,                       !- Duration {days}
    Holiday;                 !- Special Day Type

  Site:GroundTemperature:BuildingSurface,18,18,18,18,18,18,18,18,18,18,18,18;

  Site:GroundTemperature:FCfactorMethod,18.74,19.18,18.19,16.7,12.9,10.01,8.1,7.58,8.67,10.99,14.03,16.81;

  Site:GroundTemperature:Shallow,14,14,14,14,14,14,14,14,14,14,14,14;

  Site:GroundTemperature:Deep,14,14,14,14,14,14,14,14,14,14,14,14;

  Site:GroundTemperature:Undisturbed:FiniteDifference,
    Default Slab - Ground Temperature Object - Finite Difference,  !- Name
    0.52,                    !- Soil Thermal Conductivity {W/m-K}
    2050,                    !- Soil Density {kg/m3}
    184,                     !- Soil Specific Heat {J/kg-K}
    30,                      !- Soil Moisture Content Volume Fraction {percent}
    50,                      !- Soil Moisture Content Volume Fraction at Saturation {percent}
    0.4;                     !- Evapotranspiration Ground Cover Parameter {dimensionless}

  Site:GroundDomain:Slab,
    Default Slab,            !- Name
    10,                      !- Ground Domain Depth {m}
    1,                       !- Aspect Ratio
    5,                       !- Perimeter Offset {m}
    0.52,                    !- Soil Thermal Conductivity {W/m-K}
    2050,                    !- Soil Density {kg/m3}
    184,                     !- Soil Specific Heat {J/kg-K}
    30,                      !- Soil Moisture Content Volume Fraction {percent}
    50,                      !- Soil Moisture Content Volume Fraction at Saturation {percent}
    Site:GroundTemperature:Undisturbed:FiniteDifference,  !- Undisturbed Ground Temperature Model Type
    Default Slab - Ground Temperature Object - Finite Difference,  !- Undisturbed Ground Temperature Model Name
    0.4,                     !- Evapotranspiration Ground Cover Parameter
    Default Slab - Slab Boundary Condition Model - 1,  !- Slab Boundary Condition Model Name
    OnGrade,                 !- Slab Location
    ,                        !- Slab Material Name
    NO,                      !- Horizontal Insulation
    EPS 10 mm_0.05,          !- Horizontal Insulation Material Name
    FULL,                    !- Horizontal Insulation Extents
    5,                       !- Perimeter Insulation Width {m}
    NO,                      !- Vertical Insulation
    EPS 10 mm_0.05,          !- Vertical Insulation Material Name
    1,                       !- Vertical Insulation Depth {m}
    Hourly;                  !- Simulation Timestep

  Site:GroundReflectance,0.2,0.2,0.2,0.2,0.2,0.2,0.2,0.2,0.2,0.2,0.2,0.2;

  Site:GroundReflectance:SnowModifier,
    2.0,                     !- Ground Reflected Solar Modifier
    2.0;                     !- Daylighting Ground Reflected Solar Modifier

  ScheduleTypeLimits,
    Any Number;              !- Name

  ScheduleTypeLimits,
    Fraction,                !- Name
    0.0,                     !- Lower Limit Value
    1.0,                     !- Upper Limit Value
    CONTINUOUS;              !- Numeric Type

  ScheduleTypeLimits,
    Temperature,             !- Name
    -60,                     !- Lower Limit Value
    200,                     !- Upper Limit Value
    CONTINUOUS;              !- Numeric Type

  ScheduleTypeLimits,
    Control Type,            !- Name
    0,                       !- Lower Limit Value
    4,                       !- Upper Limit Value
    DISCRETE;                !- Numeric Type

  ScheduleTypeLimits,
    On/Off,                  !- Name
    0,                       !- Lower Limit Value
    1,                       !- Upper Limit Value
    DISCRETE;                !- Numeric Type

  Schedule:Day:Hourly,
    0,                       !- Name
    Any Number,              !- Schedule Type Limits Name
    0,                       !- Hour 1
    0,                       !- Hour 2
    0,                       !- Hour 3
    0,                       !- Hour 4
    0,                       !- Hour 5
    0,                       !- Hour 6
    0,                       !- Hour 7
    0,                       !- Hour 8
    0,                       !- Hour 9
    0,                       !- Hour 10
    0,                       !- Hour 11
    0,                       !- Hour 12
    0,                       !- Hour 13
    0,                       !- Hour 14
    0,                       !- Hour 15
    0,                       !- Hour 16
    0,                       !- Hour 17
    0,                       !- Hour 18
    0,                       !- Hour 19
    0,                       !- Hour 20
    0,                       !- Hour 21
    0,                       !- Hour 22
    0,                       !- Hour 23
    0;                       !- Hour 24

  Schedule:Day:Hourly,
    50,                      !- Name
    Any Number,              !- Schedule Type Limits Name
    50,                      !- Hour 1
    50,                      !- Hour 2
    50,                      !- Hour 3
    50,                      !- Hour 4
    50,                      !- Hour 5
    50,                      !- Hour 6
    50,                      !- Hour 7
    50,                      !- Hour 8
    50,                      !- Hour 9
    50,                      !- Hour 10
    50,                      !- Hour 11
    50,                      !- Hour 12
    50,                      !- Hour 13
    50,                      !- Hour 14
    50,                      !- Hour 15
    50,                      !- Hour 16
    50,                      !- Hour 17
    50,                      !- Hour 18
    50,                      !- Hour 19
    50,                      !- Hour 20
    50,                      !- Hour 21
    50,                      !- Hour 22
    50,                      !- Hour 23
    50;                      !- Hour 24

  Schedule:Day:Hourly,
    Off,                     !- Name
    Fraction,                !- Schedule Type Limits Name
    0,                       !- Hour 1
    0,                       !- Hour 2
    0,                       !- Hour 3
    0,                       !- Hour 4
    0,                       !- Hour 5
    0,                       !- Hour 6
    0,                       !- Hour 7
    0,                       !- Hour 8
    0,                       !- Hour 9
    0,                       !- Hour 10
    0,                       !- Hour 11
    0,                       !- Hour 12
    0,                       !- Hour 13
    0,                       !- Hour 14
    0,                       !- Hour 15
    0,                       !- Hour 16
    0,                       !- Hour 17
    0,                       !- Hour 18
    0,                       !- Hour 19
    0,                       !- Hour 20
    0,                       !- Hour 21
    0,                       !- Hour 22
    0,                       !- Hour 23
    0;                       !- Hour 24

  Schedule:Day:Hourly,
    Summer Control Type Day Sch,  !- Name
    Control Type,            !- Schedule Type Limits Name
    4,                       !- Hour 1
    4,                       !- Hour 2
    4,                       !- Hour 3
    4,                       !- Hour 4
    4,                       !- Hour 5
    4,                       !- Hour 6
    4,                       !- Hour 7
    4,                       !- Hour 8
    4,                       !- Hour 9
    4,                       !- Hour 10
    4,                       !- Hour 11
    4,                       !- Hour 12
    4,                       !- Hour 13
    4,                       !- Hour 14
    4,                       !- Hour 15
    4,                       !- Hour 16
    4,                       !- Hour 17
    4,                       !- Hour 18
    4,                       !- Hour 19
    4,                       !- Hour 20
    4,                       !- Hour 21
    4,                       !- Hour 22
    4,                       !- Hour 23
    4;                       !- Hour 24

  Schedule:Day:Hourly,
    Winter Control Type Day Sch,  !- Name
    Control Type,            !- Schedule Type Limits Name
    4,                       !- Hour 1
    4,                       !- Hour 2
    4,                       !- Hour 3
    4,                       !- Hour 4
    4,                       !- Hour 5
    4,                       !- Hour 6
    4,                       !- Hour 7
    4,                       !- Hour 8
    4,                       !- Hour 9
    4,                       !- Hour 10
    4,                       !- Hour 11
    4,                       !- Hour 12
    4,                       !- Hour 13
    4,                       !- Hour 14
    4,                       !- Hour 15
    4,                       !- Hour 16
    4,                       !- Hour 17
    4,                       !- Hour 18
    4,                       !- Hour 19
    4,                       !- Hour 20
    4,                       !- Hour 21
    4,                       !- Hour 22
    4,                       !- Hour 23
    4;                       !- Hour 24

  Schedule:Day:Hourly,
    Summer Control Type Day Sch - cool,  !- Name
    Control Type,            !- Schedule Type Limits Name
    2,                       !- Hour 1
    2,                       !- Hour 2
    2,                       !- Hour 3
    2,                       !- Hour 4
    2,                       !- Hour 5
    2,                       !- Hour 6
    2,                       !- Hour 7
    2,                       !- Hour 8
    2,                       !- Hour 9
    2,                       !- Hour 10
    2,                       !- Hour 11
    2,                       !- Hour 12
    2,                       !- Hour 13
    2,                       !- Hour 14
    2,                       !- Hour 15
    2,                       !- Hour 16
    2,                       !- Hour 17
    2,                       !- Hour 18
    2,                       !- Hour 19
    2,                       !- Hour 20
    2,                       !- Hour 21
    2,                       !- Hour 22
    2,                       !- Hour 23
    2;                       !- Hour 24

  Schedule:Day:Hourly,
    Winter Control Type Day Sch - heat,  !- Name
    Control Type,            !- Schedule Type Limits Name
    1,                       !- Hour 1
    1,                       !- Hour 2
    1,                       !- Hour 3
    1,                       !- Hour 4
    1,                       !- Hour 5
    1,                       !- Hour 6
    1,                       !- Hour 7
    1,                       !- Hour 8
    1,                       !- Hour 9
    1,                       !- Hour 10
    1,                       !- Hour 11
    1,                       !- Hour 12
    1,                       !- Hour 13
    1,                       !- Hour 14
    1,                       !- Hour 15
    1,                       !- Hour 16
    1,                       !- Hour 17
    1,                       !- Hour 18
    1,                       !- Hour 19
    1,                       !- Hour 20
    1,                       !- Hour 21
    1,                       !- Hour 22
    1,                       !- Hour 23
    1;                       !- Hour 24

  Schedule:Day:Interval,
    11,                      !- Name
    Any number,              !- Schedule Type Limits Name
    No,                      !- Interpolate to Timestep
    24:00,                   !- Time 1
    0;                       !- Value Until Time 1

  Schedule:Day:List,
    10017,                   !- Name
    Any number,              !- Schedule Type Limits Name
    No,                      !- Interpolate to Timestep
    60,                      !- Minutes per Item
    .85,                     !- Value 1
    .85,                     !- <none>
    .85,                     !- <none>
    .85,                     !- <none>
    .85,                     !- <none>
    .85,                     !- <none>
    1,                       !- <none>
    1,                       !- <none>
    1,                       !- <none>
    1,                       !- <none>
    1,                       !- <none>
    1,                       !- <none>
    1,                       !- <none>
    1,                       !- <none>
    1,                       !- <none>
    1,                       !- <none>
    1,                       !- <none>
    1,                       !- <none>
    1,                       !- <none>
    1,                       !- <none>
    1,                       !- <none>
    1,                       !- <none>
    .85,                     !- <none>
    .85;                     !- <none>

  Schedule:Week:Daily,
    Off,                     !- Name
    Off,                     !- Sunday Schedule:Day Name
    Off,                     !- Monday Schedule:Day Name
    Off,                     !- Tuesday Schedule:Day Name
    Off,                     !- Wednesday Schedule:Day Name
    Off,                     !- Thursday Schedule:Day Name
    Off,                     !- Friday Schedule:Day Name
    Off,                     !- Saturday Schedule:Day Name
    Off,                     !- Holiday Schedule:Day Name
    Off,                     !- SummerDesignDay Schedule:Day Name
    Off,                     !- WinterDesignDay Schedule:Day Name
    Off,                     !- CustomDay1 Schedule:Day Name
    Off;                     !- CustomDay2 Schedule:Day Name

  Schedule:Week:Daily,
    Summer Control Type Week Sch,  !- Name
    Summer Control Type Day Sch,  !- Sunday Schedule:Day Name
    Summer Control Type Day Sch,  !- Monday Schedule:Day Name
    Summer Control Type Day Sch,  !- Tuesday Schedule:Day Name
    Summer Control Type Day Sch,  !- Wednesday Schedule:Day Name
    Summer Control Type Day Sch,  !- Thursday Schedule:Day Name
    Summer Control Type Day Sch,  !- Friday Schedule:Day Name
    Summer Control Type Day Sch,  !- Saturday Schedule:Day Name
    Summer Control Type Day Sch,  !- Holiday Schedule:Day Name
    Summer Control Type Day Sch,  !- SummerDesignDay Schedule:Day Name
    Summer Control Type Day Sch,  !- WinterDesignDay Schedule:Day Name
    Summer Control Type Day Sch,  !- CustomDay1 Schedule:Day Name
    Summer Control Type Day Sch;  !- CustomDay2 Schedule:Day Name

  Schedule:Week:Daily,
    Winter Control Type Week Sch,  !- Name
    Winter Control Type Day Sch,  !- Sunday Schedule:Day Name
    Winter Control Type Day Sch,  !- Monday Schedule:Day Name
    Winter Control Type Day Sch,  !- Tuesday Schedule:Day Name
    Winter Control Type Day Sch,  !- Wednesday Schedule:Day Name
    Winter Control Type Day Sch,  !- Thursday Schedule:Day Name
    Winter Control Type Day Sch,  !- Friday Schedule:Day Name
    Winter Control Type Day Sch,  !- Saturday Schedule:Day Name
    Winter Control Type Day Sch,  !- Holiday Schedule:Day Name
    Winter Control Type Day Sch,  !- SummerDesignDay Schedule:Day Name
    Winter Control Type Day Sch,  !- WinterDesignDay Schedule:Day Name
    Winter Control Type Day Sch,  !- CustomDay1 Schedule:Day Name
    Winter Control Type Day Sch;  !- CustomDay2 Schedule:Day Name

  Schedule:Week:Daily,
    Summer Control Type Week Sch - cool,  !- Name
    Summer Control Type Day Sch - cool,  !- Sunday Schedule:Day Name
    Summer Control Type Day Sch - cool,  !- Monday Schedule:Day Name
    Summer Control Type Day Sch - cool,  !- Tuesday Schedule:Day Name
    Summer Control Type Day Sch - cool,  !- Wednesday Schedule:Day Name
    Summer Control Type Day Sch - cool,  !- Thursday Schedule:Day Name
    Summer Control Type Day Sch - cool,  !- Friday Schedule:Day Name
    Summer Control Type Day Sch - cool,  !- Saturday Schedule:Day Name
    Summer Control Type Day Sch - cool,  !- Holiday Schedule:Day Name
    Summer Control Type Day Sch - cool,  !- SummerDesignDay Schedule:Day Name
    Summer Control Type Day Sch - cool,  !- WinterDesignDay Schedule:Day Name
    Summer Control Type Day Sch - cool,  !- CustomDay1 Schedule:Day Name
    Summer Control Type Day Sch - cool;  !- CustomDay2 Schedule:Day Name

  Schedule:Week:Daily,
    Winter Control Type Week Sch - heat,  !- Name
    Winter Control Type Day Sch - heat,  !- Sunday Schedule:Day Name
    Winter Control Type Day Sch - heat,  !- Monday Schedule:Day Name
    Winter Control Type Day Sch - heat,  !- Tuesday Schedule:Day Name
    Winter Control Type Day Sch - heat,  !- Wednesday Schedule:Day Name
    Winter Control Type Day Sch - heat,  !- Thursday Schedule:Day Name
    Winter Control Type Day Sch - heat,  !- Friday Schedule:Day Name
    Winter Control Type Day Sch - heat,  !- Saturday Schedule:Day Name
    Winter Control Type Day Sch - heat,  !- Holiday Schedule:Day Name
    Winter Control Type Day Sch - heat,  !- SummerDesignDay Schedule:Day Name
    Winter Control Type Day Sch - heat,  !- WinterDesignDay Schedule:Day Name
    Winter Control Type Day Sch - heat,  !- CustomDay1 Schedule:Day Name
    Winter Control Type Day Sch - heat;  !- CustomDay2 Schedule:Day Name

  Schedule:Week:Daily,
    CEV HORARIO CARGAS INTERNAS ASOCIADAS A OCUPANTES 2O22_Jan,  !- Name
    10017,                   !- Sunday Schedule:Day Name
    10017,                   !- Monday Schedule:Day Name
    10017,                   !- Tuesday Schedule:Day Name
    10017,                   !- Wednesday Schedule:Day Name
    10017,                   !- Thursday Schedule:Day Name
    10017,                   !- Friday Schedule:Day Name
    10017,                   !- Saturday Schedule:Day Name
    10017,                   !- Holiday Schedule:Day Name
    10017,                   !- SummerDesignDay Schedule:Day Name
    11,                      !- WinterDesignDay Schedule:Day Name
    10017,                   !- CustomDay1 Schedule:Day Name
    10017;                   !- CustomDay2 Schedule:Day Name

  Schedule:Week:Daily,
    CEV HORARIO CARGAS INTERNAS ASOCIADAS A OCUPANTES 2O22_Feb,  !- Name
    10017,                   !- Sunday Schedule:Day Name
    10017,                   !- Monday Schedule:Day Name
    10017,                   !- Tuesday Schedule:Day Name
    10017,                   !- Wednesday Schedule:Day Name
    10017,                   !- Thursday Schedule:Day Name
    10017,                   !- Friday Schedule:Day Name
    10017,                   !- Saturday Schedule:Day Name
    10017,                   !- Holiday Schedule:Day Name
    10017,                   !- SummerDesignDay Schedule:Day Name
    11,                      !- WinterDesignDay Schedule:Day Name
    10017,                   !- CustomDay1 Schedule:Day Name
    10017;                   !- CustomDay2 Schedule:Day Name

  Schedule:Week:Daily,
    CEV HORARIO CARGAS INTERNAS ASOCIADAS A OCUPANTES 2O22_Mar,  !- Name
    10017,                   !- Sunday Schedule:Day Name
    10017,                   !- Monday Schedule:Day Name
    10017,                   !- Tuesday Schedule:Day Name
    10017,                   !- Wednesday Schedule:Day Name
    10017,                   !- Thursday Schedule:Day Name
    10017,                   !- Friday Schedule:Day Name
    10017,                   !- Saturday Schedule:Day Name
    10017,                   !- Holiday Schedule:Day Name
    10017,                   !- SummerDesignDay Schedule:Day Name
    11,                      !- WinterDesignDay Schedule:Day Name
    10017,                   !- CustomDay1 Schedule:Day Name
    10017;                   !- CustomDay2 Schedule:Day Name

  Schedule:Week:Daily,
    CEV HORARIO CARGAS INTERNAS ASOCIADAS A OCUPANTES 2O22_Apr,  !- Name
    10017,                   !- Sunday Schedule:Day Name
    10017,                   !- Monday Schedule:Day Name
    10017,                   !- Tuesday Schedule:Day Name
    10017,                   !- Wednesday Schedule:Day Name
    10017,                   !- Thursday Schedule:Day Name
    10017,                   !- Friday Schedule:Day Name
    10017,                   !- Saturday Schedule:Day Name
    10017,                   !- Holiday Schedule:Day Name
    10017,                   !- SummerDesignDay Schedule:Day Name
    11,                      !- WinterDesignDay Schedule:Day Name
    10017,                   !- CustomDay1 Schedule:Day Name
    10017;                   !- CustomDay2 Schedule:Day Name

  Schedule:Week:Daily,
    CEV HORARIO CARGAS INTERNAS ASOCIADAS A OCUPANTES 2O22_May,  !- Name
    10017,                   !- Sunday Schedule:Day Name
    10017,                   !- Monday Schedule:Day Name
    10017,                   !- Tuesday Schedule:Day Name
    10017,                   !- Wednesday Schedule:Day Name
    10017,                   !- Thursday Schedule:Day Name
    10017,                   !- Friday Schedule:Day Name
    10017,                   !- Saturday Schedule:Day Name
    10017,                   !- Holiday Schedule:Day Name
    10017,                   !- SummerDesignDay Schedule:Day Name
    11,                      !- WinterDesignDay Schedule:Day Name
    10017,                   !- CustomDay1 Schedule:Day Name
    10017;                   !- CustomDay2 Schedule:Day Name

  Schedule:Week:Daily,
    CEV HORARIO CARGAS INTERNAS ASOCIADAS A OCUPANTES 2O22_Jun,  !- Name
    10017,                   !- Sunday Schedule:Day Name
    10017,                   !- Monday Schedule:Day Name
    10017,                   !- Tuesday Schedule:Day Name
    10017,                   !- Wednesday Schedule:Day Name
    10017,                   !- Thursday Schedule:Day Name
    10017,                   !- Friday Schedule:Day Name
    10017,                   !- Saturday Schedule:Day Name
    10017,                   !- Holiday Schedule:Day Name
    10017,                   !- SummerDesignDay Schedule:Day Name
    11,                      !- WinterDesignDay Schedule:Day Name
    10017,                   !- CustomDay1 Schedule:Day Name
    10017;                   !- CustomDay2 Schedule:Day Name

  Schedule:Week:Daily,
    CEV HORARIO CARGAS INTERNAS ASOCIADAS A OCUPANTES 2O22_Jul,  !- Name
    10017,                   !- Sunday Schedule:Day Name
    10017,                   !- Monday Schedule:Day Name
    10017,                   !- Tuesday Schedule:Day Name
    10017,                   !- Wednesday Schedule:Day Name
    10017,                   !- Thursday Schedule:Day Name
    10017,                   !- Friday Schedule:Day Name
    10017,                   !- Saturday Schedule:Day Name
    10017,                   !- Holiday Schedule:Day Name