! File generated by DesignBuilder - 7.3.0.016 14/02/2024 - 15:35:20
! Source file: C:\Users\usuario\Downloads\COMB 03_CA1.2,2,3,4,5.2,6,7,8_08.08.23_mod_no-door_hat_mod.dsb

! Geometry convention template : External measurements
! Zone geometry and surface areas : 2-Outer
! Zone volume calculation method : 1-Inner
! Zone floor area calculation method : 1-Inner
! Window to wall ratio method : 1-Inner

Version, 9.4;                               !- Version Identifier

RunPeriod,                                        !- Annual simulation
   Sitio (01-01:31-12),                           !- Location
   1,1,,                                          !- Start Month , Day
   12,31,,                                        !- End Month , Day
   Monday,                                        !- Day of Week for Start Day
   No,                                            !- Use weather file holidays/special day periods
   Yes,                                           !- Use WeatherFile DaylightSavingPeriod - will use daylight saving time in weather file
   Yes,                                           !- Apply Weekend Holiday Rule - will reassign weekend holidays to Monday
   Yes,                                           !- use weather file rain indicators
   Yes,                                           !- use weather file snow indicators
   No;                                            !- Treat Weather as Actual

! Hourly weather file: C:\ProgramData\DesignBuilder\Weather Data\Los Angeles Estacion Human 2020.epw

Site:Location,Sitio (01-01:31-12)  (01-01:31-12), !- Location Name
   -36.77,                                        !- Latitude
   -73.07,                                        !- Longitude
   -4,                                            !- Time Zone
   148;                                           !- Elevation {m}

Site:GroundTemperature:BuildingSurface,           !- Annual ground temperatures - 1 value for each month
   18,                                            !- Jan ground temperature
   18,                                            !- Feb ground temperature
   18,                                            !- Mar ground temperature
   18,                                            !- Apr ground temperature
   18,                                            !- May ground temperature
   18,                                            !- Jun ground temperature
   18,                                            !- Jul ground temperature
   18,                                            !- Aug ground temperature
   18,                                            !- Sep ground temperature
   18,                                            !- Oct ground temperature
   18,                                            !- Nov ground temperature
   18;                                            !- Dec ground temperature

Site:GroundTemperature:Deep,                      !- Annual ground temperatures - 1 value for each month
   14,                                            !- Jan deep ground temperature
   14,                                            !- Feb deep ground temperature
   14,                                            !- Mar deep ground temperature
   14,                                            !- Apr deep ground temperature
   14,                                            !- May deep ground temperature
   14,                                            !- Jun deep ground temperature
   14,                                            !- Jul deep ground temperature
   14,                                            !- Aug deep ground temperature
   14,                                            !- Sep deep ground temperature
   14,                                            !- Oct deep ground temperature
   14,                                            !- Nov deep ground temperature
   14;                                            !- Dec deep ground temperature

Site:GroundTemperature:Shallow,                   !- Annual ground temperatures - 1 value for each month
   14,                                            !- Jan shallow ground temperature
   14,                                            !- Feb shallow ground temperature
   14,                                            !- Mar shallow ground temperature
   14,                                            !- Apr shallow ground temperature
   14,                                            !- May shallow ground temperature
   14,                                            !- Jun shallow ground temperature
   14,                                            !- Jul shallow ground temperature
   14,                                            !- Aug shallow ground temperature
   14,                                            !- Sep shallow ground temperature
   14,                                            !- Oct shallow ground temperature
   14,                                            !- Nov shallow ground temperature
   14;                                            !- Dec shallow ground temperature

Site:GroundTemperature:FCfactorMethod,            !- Annual ground temperatures - 1 value for each month
   18.74,                                         !- January FCfactorMethod ground temperature {C}
   19.18,                                         !- Februry FCfactorMethod ground temperature {C}
   18.19,                                         !- March FCfactorMethod ground temperature {C}
   16.70,                                         !- April FCfactorMethod ground temperature {C}
   12.90,                                         !- May FCfactorMethod ground temperature {C}
   10.01,                                         !- June FCfactorMethod ground temperature {C}
   8.10,                                          !- July FCfactorMethod ground temperature {C}
   7.58,                                          !- August FCfactorMethod ground temperature {C}
   8.67,                                          !- September FCfactorMethod ground temperature {C}
   10.99,                                         !- October FCfactorMethod ground temperature {C}
   14.03,                                         !- November FCfactorMethod ground temperature {C}
   16.81;                                         !- December FCfactorMethod ground temperature {C}

Site:GroundReflectance,                           !- Annual ground reflectances - 1 value for each month
   0.2,                                           !- Jan ground reflectance
   0.2,                                           !- Feb ground reflectance
   0.2,                                           !- Mar ground reflectance
   0.2,                                           !- Apr ground reflectance
   0.2,                                           !- May ground reflectance
   0.2,                                           !- Jun ground reflectance
   0.2,                                           !- Jul ground reflectance
   0.2,                                           !- Aug ground reflectance
   0.2,                                           !- Sep ground reflectance
   0.2,                                           !- Oct ground reflectance
   0.2,                                           !- Nov ground reflectance
   0.2;                                           !- Dec ground reflectance

Site:GroundReflectance:SnowModifier,
   2.0,                                           !- Ground Reflected Solar Modifier
   2.0;                                           !- Daylighting Ground Reflected Solar Modifier

SimulationControl,
   Yes,                                           !- Do the zone sizing calculation
   Yes,                                           !- Do the system sizing calculation
   No,                                            !- Do the plant sizing calculation
   No,                                            !- Do the design day calculation
   Yes;                                           !- Do the weather file calculation


SizingPeriod:DesignDay, Summer Design Day in Sitio (01-01:31-12) Jul,  !- Design Day Name
   7,                                             !- Month
   15,                                            !- Day of Month
   SummerDesignDay,                               !- Day Type -- used for schedules
   24.4,                                          !- Maximum Dry-Bulb Temperature {C}
   11.1,                                          !- Daily Dry-Bulb Temperature Range {C}
   ,                                              !- Dry-Bulb Temperature Range Modifier Type
   ,                                              !- Dry-Bulb Temperature Range Modifier Schedule
   WetBulb,                                       !- Humidity Condition Type
   17.2,                                          !- Wetbulb at Maximum Dry-Bulb{C}
   ,                                              !- Humidity Condition Day Schedule Name
   ,                                              !- Humidity Ratio at Maximum Dry-Bulb
   ,                                              !- Enthalpy Ratio at Maximum Dry-Bulb
   ,                                              !- Daily Wet-Bulb Temperature Range
   99559.6,                                       !- Barometric Pressure {N/M**2}
   0,                                             !- Wind Speed {m/s}
   0,                                             !- Wind Direction {Degrees N=0, S=180}
   No,                                            !- Rain Indicator
   No,                                            !- Snow on ground indicator
   No,                                            !- Daylight Savings Time Indicator
   ASHRAEClearSky,                                !- Solar Model Indicator
   ,                                              !- Beam Solar Day Schedule Name
   ,                                              !- Diffuse Solar Day Schedule Name
   ,                                              !- ASHRAE Clear Sky Optical Depth for Beam Irradiance (taub)
   ,                                              !- ASHRAE Clear Sky Optical Depth for Diffuse Irradiance (taud)
   0.98;                                          !- Clearness {0.0 to 1.2}

SizingPeriod:DesignDay, Winter Design Day in Sitio (01-01:31-12),  !- Design Day Name
   7,                                             !- Month
   15,                                            !- Day of Month
   WinterDesignDay,                               !- Day Type -- used for schedules
   1.2,                                           !- Max Dry-Bulb {C}
   0,                                             !- Daily Temp Range {C}
   ,                                              !- Dry-Bulb Temperature Range Modifier Type
   ,                                              !- Dry-Bulb Temperature Range Modifier Schedule
   WetBulb,                                       !- Humidity Condition Type
   1.2,                                           !- Wet-Bulb at Max {C}
   ,                                              !- Humidity Condition Day Schedule Name
   ,                                              !- Humidity Ratio at Maximum Dry-Bulb
   ,                                              !- Enthalpy Ratio at Maximum Dry-Bulb
   ,                                              !- Daily Wet-Bulb Temperature Range
   99559.6,                                       !- Barometric Pressure {N/M**2}
   17.4,                                          !- Wind Speed {M/Sec}
   0,                                             !- Wind Direction {Degrees N=0, S=180}
   No,                                            !- Rain Indicator
   No,                                            !- Snow on ground indicator
   No,                                            !- Daylight Savings Time Indicator
   ,                                              !- Solar Model Indicator
   ,                                              !- Beam Solar Day Schedule Name
   ,                                              !- Diffuse Solar Day Schedule Name
   ,                                              !- ASHRAE Clear Sky Optical Depth for Beam Irradiance (taub)
   ,                                              !- ASHRAE Clear Sky Optical Depth for Diffuse Irradiance (taud)
   0;                                             !- Clearness {0.0 to 1.2} - gives no sun (but does include long wave radiant heat exchange with sky)

Timestep, 6;                                      !- Timesteps/hour

ConvergenceLimits,
   1,                                             !- Minimum System Time Step (0=same as zone time step)
   25;                                            !- Maximum HVAC Iterations (1=min, 20=default)

AirflowNetwork:MultiZone:Surface:Crack,           !- Crack used to connect zones to make AIRFLOWNETWORK:MULTIZONE network valid
   DefaultCrack,                                  !- Crack Name
   0.00000000001,                                 !- Flow coeff (kg/s @ 1Pa)
   0.66,                                          !- Flow exponent
   Reference Crack Conditions;                    !- Reference crack conditions

ScheduleTypeLimits, Any Number;                         ! Not limited
ScheduleTypeLimits, Fraction,     0.0, 1.0, CONTINUOUS;
ScheduleTypeLimits, Temperature,  -60, 200, CONTINUOUS;
ScheduleTypeLimits, Control Type,   0,   4, DISCRETE;
ScheduleTypeLimits, On/Off,         0,   1, DISCRETE;

Schedule:Compact, 
      On,                                         ! Name
      Any Number,                                 ! Type
      Through: 12/31,                             ! Type
      For: AllDays,                               ! All days in year
      Until: 24:00,                               ! All hours in day
       1;     

Schedule:Compact, 
      Off,                                        ! Name
      Any Number,                                 ! Type
      Through: 12/31,                             ! Type
      For: AllDays,                               ! All days in year
      Until: 24:00,                               ! All hours in day
       0;     

Schedule:Compact, 
      Work efficiency,                            ! Name
      Any Number,                                 ! Type
      Through: 12/31,                             ! Type
      For: AllDays,                               ! All days in year
      Until: 24:00,                               ! All hours in day
       0;     

Schedule:Compact,
      OpaqueShade,                                ! Name
      Any Number,                                 ! Type
      Through: 12/31,                             ! Type
      For: AllDays,                               ! All days in year
      Until: 24:00,                               ! All hours in day
       0;     
       
Schedule:Compact,
    Zone Comfort Control Type Sched,              !- Name
    Control Type,                                 !- Schedule Type Limits Name
    Through: 12/31,                               !- Field 1
    For: AllDays,                                 !- Field 2
    Until: 24:00,                                 !- Field 3
    4;                                            !- Field 4

Schedule:Compact,
    Design Days Only,                             !- Name
    Any Number,                                   !- Schedule Type Limits Name
    Through: 12/31,                               !- Field 1
    For: SummerDesignDay WinterDesignDay,         !- Field 2
    Until: 24:00,                                 !- Field 3
    1,                                            !- Field 4
    For: AllOtherDays,                            !- Field 2
    Until: 24:00,                                 !- Field 3
    0;
      
! off heating day
Schedule:Day:Hourly,  0, Any Number,
   0,0,0,0,0,0,0,0,0,0,0,0,0,0,0,0,0,0,0,0,0,0,0,0;

! off cooling day
Schedule:Day:Hourly,  50, Any Number,
   50,50,50,50,50,50,50,50,50,50,50,50,50,50,50,50,50,50,50,50,50,50,50,50;

! used in seasonal schedules
Schedule:Day:Hourly,  Off, Fraction,
   0,0,0,0,0,0,0,0,0,0,0,0,0,0,0,0,0,0,0,0,0,0,0,0;

Schedule:Week:Daily, Off,
   Off,Off,Off,Off,
   Off,Off,Off,Off,
   Off,Off,Off,Off;

! -------------------- Control type schedules (for heating & cooling) ----------------------

Schedule:Day:Hourly, Summer Control Type Day Sch, Control Type,
   4,4,4,4,4,4,4,4,4,4,4,4,4,4,4,4,4,4,4,4,4,4,4,4;

Schedule:Day:Hourly, Winter Control Type Day Sch, Control Type,
   4,4,4,4,4,4,4,4,4,4,4,4,4,4,4,4,4,4,4,4,4,4,4,4;

Schedule:Day:Hourly, Summer Control Type Day Sch - cool, Control Type,
   2,2,2,2,2,2,2,2,2,2,2,2,2,2,2,2,2,2,2,2,2,2,2,2;

Schedule:Day:Hourly, Winter Control Type Day Sch - heat, Control Type,
   1,1,1,1,1,1,1,1,1,1,1,1,1,1,1,1,1,1,1,1,1,1,1,1;

Schedule:Week:Daily, Summer Control Type Week Sch,
   Summer Control Type Day Sch,Summer Control Type Day Sch,Summer Control Type Day Sch,
   Summer Control Type Day Sch,Summer Control Type Day Sch,Summer Control Type Day Sch,
   Summer Control Type Day Sch,Summer Control Type Day Sch,Summer Control Type Day Sch,
   Summer Control Type Day Sch,Summer Control Type Day Sch,Summer Control Type Day Sch;

Schedule:Week:Daily, Winter Control Type Week Sch,
   Winter Control Type Day Sch,Winter Control Type Day Sch,Winter Control Type Day Sch,
   Winter Control Type Day Sch,Winter Control Type Day Sch,Winter Control Type Day Sch,
   Winter Control Type Day Sch,Winter Control Type Day Sch,Winter Control Type Day Sch,
   Winter Control Type Day Sch,Winter Control Type Day Sch,Winter Control Type Day Sch;

Schedule:Week:Daily, Summer Control Type Week Sch - cool,
   Summer Control Type Day Sch - cool,Summer Control Type Day Sch - cool,Summer Control Type Day Sch - cool,
   Summer Control Type Day Sch - cool,Summer Control Type Day Sch - cool,Summer Control Type Day Sch - cool,
   Summer Control Type Day Sch - cool,Summer Control Type Day Sch - cool,Summer Control Type Day Sch - cool,
   Summer Control Type Day Sch - cool,Summer Control Type Day Sch - cool,Summer Control Type Day Sch - cool;

Schedule:Week:Daily, Winter Control Type Week Sch - heat,
   Winter Control Type Day Sch - heat,Winter Control Type Day Sch - heat,Winter Control Type Day Sch - heat,
   Winter Control Type Day Sch - heat,Winter Control Type Day Sch - heat,Winter Control Type Day Sch - heat,
   Winter Control Type Day Sch - heat,Winter Control Type Day Sch - heat,Winter Control Type Day Sch - heat,
   Winter Control Type Day Sch - heat,Winter Control Type Day Sch - heat,Winter Control Type Day Sch - heat;

!Material:InfraredTransparent,
!IRTMaterial; !- Name

!Construction,
!IRTSurface,  !- Name
!IRTMaterial; !- Outside Layer





Material:NoMass, 
LinearBridgingLayer,                  ! Material Name
Rough,                                ! Roughness
0.6267 ,                              ! Resistance {M**2K/W} will give Total Resistance 1
0.0000100 ,                           ! Thermal Absorptance
0.0000000 ,                           ! Solar Absorptance
0.0000000 ;                           ! Visible Absorptance

Construction,
LinearBridgingConstruction,           !- Name
LinearBridgingLayer;                  !- Layer

Schedule:Compact,
TypOperativeTempControlSch,
Temperature,
Through: 31 Dec,
For: SummerDesignDay WinterDesignDay,
Until: 24:00, 0.0,
For: AllOtherDays,
Until: 24:00, 0.5;

Schedule:Compact, 
      OnWinterDesignDay,                          ! Name
      Any Number,                                 
      Through: 12/31,                             
      For: WinterDesignDay,                       ! All days in year
      Until: 24:00, 1,
      For: AllOtherDays,
      Until: 24:00, 0;     

Schedule:Compact, 
      OnSummerDesignDay,                          ! Name
      Any Number,                                 
      Through: 12/31,                             
      For: SummerDesignDay,                       ! All days in year
      Until: 24:00, 1,
      For: AllOtherDays,
      Until: 24:00, 0;     

Material:InfraredTransparent,
IRTMaterial; !- Name

Construction,
IRTSurface,  !- Name
IRTMaterial; !- Outside Layer


AirflowNetwork:SimulationControl,
   VENT,                                          !- AirflowNetwork Simulation Name
   MultizoneWithoutDistribution,                  !- AirflowNetwork Control
   Input,                                         !- Wind Pressure Coefficient Type
   OpeningHeight,                                 !- Height Selection for Local Wind Speed Calculation
   LowRise,                                       !- Building Type
   1000,                                          !- Maximum number of iterations
   ZeroNodePressures,                             !- Initialization flag
   .0001,                                         !- Relative airflow convergence tolerance
   .000001,                                       !- Absolute airflow convergence tolerance
   -0.5,                                          !- Convergence acceleration limit
   0,                                             !- Azimuth Angle of Long Axis of Building
   1;                                             !- Ratio of Building Width Along Short Axis to Width Along Long Axis

! Profile: Off
Schedule:Day:Interval, 11 , Any number, No, 
24:00,  0;

! Profile: CEV CARGAS INTERNAS ASOCIADAS 2022
Schedule:Day:List, 10017 , Any number, No, 
60,
.85,
.85,
.85,
.85,
.85,
.85,
1,
1,
1,
1,
1,
1,
1,
1,
1,
1,
1,
1,
1,
1,
1,
1,
.85,
.85;

! Profile: 9H CALF MULCHEN 2022
Schedule:Day:List, 10019 , Any number, No, 
60,
0,
0,
0,
0,
0,
0,
1,
1,
1,
0,
0,
0,
0,
0,
0,
0,
0,
1,
1,
1,
1,
1,
1,
0;

! Profile: 10H CALF MULCHEN 2022
Schedule:Day:List, 10020 , Any number, No, 
60,
0,
0,
0,
0,
0,
0,
1,
1,
1,
0,
0,
0,
0,
0,
0,
0,
0,
1,
1,
1,
1,
1,
1,
1;

! Profile: 5H VENT NATURAL VERANO
Schedule:Day:List, 10021 , Any number, No, 
60,
0,
0,
0,
0,
0,
0,
0,
0,
1,
1,
0,
0,
0,
0,
0,
0,
1,
1,
1,
0,
0,
0,
0,
0;

! Profile: 1H VENT NATURAL INVIERNO
Schedule:Day:List, 10022 , Any number, No, 
60,
0,
0,
0,
0,
0,
0,
0,
0,
1,
0,
0,
0,
0,
0,
0,
0,
0,
0,
0,
0,
0,
0,
0,
0;

! Profile: 2.5 H ILUM
Schedule:Day:List, 10023 , Any number, No, 
60,
0,
0,
0,
0,
0,
0,
0,
0,
0,
0,
0,
0,
0,
0,
0,
0,
0,
0,
0,
1,
1,
.55,
0,
0;

! Schedule: On 24/7
Schedule:Compact, 
On 24/7, 
Any Number,
Through: 12/31,
For: AllDays,   
Until: 24:00,   1 ;


! Schedule: Minimum outdoor ventilation air schedule: Always 1 ac/h
Schedule:Compact, 
Minimum outdoor ventilation air schedule: Always 1 ac/h, 
Any Number,
Through: 12/31,
For: AllDays,   
Until: 24:00, 1 ;


! Schedule: AirflowNetwork Control Type Schedule: Always 1
Schedule:Compact, 
AirflowNetwork Control Type Schedule: Always 1, 
Any Number,
Through: 12/31,
For: AllDays,   
Until: 24:00, 1 ;


! Schedule: Default Air Velocity for Comfort Calculations
Schedule:Compact, 
Default Air Velocity for Comfort Calculations, 
Any Number,
Through: 12/31,
For: AllDays,   
Until: 24:00,   0.1370 ;


! Schedule: Residencial CTE ACS
Schedule:Compact,
Residencial CTE ACS,
Fraction,
Through: 31 Dec,
For: AllDays,
Until: 01:00,0.0952,
Until: 02:00,0.04,
Until: 03:00,0.032,
Until: 04:00,0.016,
Until: 05:00,0.016,
Until: 06:00,0.0472,
Until: 07:00,0.2136,
Until: 08:00,0.792,
Until: 09:00,0.5544,
Until: 10:00,0.5944,
Until: 11:00,0.4912,
Until: 12:00,0.4432,
Until: 13:00,0.38,
Until: 14:00,0.38,
Until: 15:00,0.3248,
Until: 16:00,0.2616,
Until: 17:00,0.3088,
Until: 18:00,0.3008,
Until: 19:00,0.412,
Until: 20:00,0.5544,
Until: 21:00,0.4512,
Until: 22:00,0.4992,
Until: 23:00,0.38,
Until: 24:00,0.412;


! Schedule: CEV HORARIO CARGAS INTERNAS ASOCIADAS A OCUPANTES 2O22
Schedule:Week:Daily, CEV HORARIO CARGAS INTERNAS ASOCIADAS A OCUPANTES 2O22_Jan,  !- A Schedule:Week:Daily contains 12 DAYSCHEDULES, one for each day type
   10017,                                         !- Sunday
   10017,                                         !- Monday
   10017,                                         !- Tuesday
   10017,                                         !- Wednesday
   10017,                                         !- Thursday
   10017,                                         !- Friday
   10017,                                         !- Saturday
   10017,                                         !- Holiday
   10017,                                         !- SummerDesignDay
   11,                                            !- WinterDesignDay
   10017,                                         !- CustomDay1
   10017;                                         !- CustomDay2

Schedule:Week:Daily, CEV HORARIO CARGAS INTERNAS ASOCIADAS A OCUPANTES 2O22_Feb,  !- A Schedule:Week:Daily contains 12 DAYSCHEDULES, one for each day type
   10017,                                         !- Sunday
   10017,                                         !- Monday
   10017,                                         !- Tuesday
   10017,                                         !- Wednesday
   10017,                                         !- Thursday
   10017,                                         !- Friday
   10017,                                         !- Saturday
   10017,                                         !- Holiday
   10017,                                         !- SummerDesignDay
   11,                                            !- WinterDesignDay
   10017,                                         !- CustomDay1
   10017;                                         !- CustomDay2

Schedule:Week:Daily, CEV HORARIO CARGAS INTERNAS ASOCIADAS A OCUPANTES 2O22_Mar,  !- A Schedule:Week:Daily contains 12 DAYSCHEDULES, one for each day type
   10017,                                         !- Sunday
   10017,                                         !- Monday
   10017,                                         !- Tuesday
   10017,                                         !- Wednesday
   10017,                                         !- Thursday
   10017,                                         !- Friday
   10017,                                         !- Saturday
   10017,                                         !- Holiday
   10017,                                         !- SummerDesignDay
   11,                                            !- WinterDesignDay
   10017,                                         !- CustomDay1
   10017;                                         !- CustomDay2

Schedule:Week:Daily, CEV HORARIO CARGAS INTERNAS ASOCIADAS A OCUPANTES 2O22_Apr,  !- A Schedule:Week:Daily contains 12 DAYSCHEDULES, one for each day type
   10017,                                         !- Sunday
   10017,                                         !- Monday
   10017,                                         !- Tuesday
   10017,                                         !- Wednesday
   10017,                                         !- Thursday
   10017,                                         !- Friday
   10017,                                         !- Saturday
   10017,                                         !- Holiday
   10017,                                         !- SummerDesignDay
   11,                                            !- WinterDesignDay
   10017,                                         !- CustomDay1
   10017;                                         !- CustomDay2

Schedule:Week:Daily, CEV HORARIO CARGAS INTERNAS ASOCIADAS A OCUPANTES 2O22_May,  !- A Schedule:Week:Daily contains 12 DAYSCHEDULES, one for each day type
   10017,                                         !- Sunday
   10017,                                         !- Monday
   10017,                                         !- Tuesday
   10017,                                         !- Wednesday
   10017,                                         !- Thursday
   10017,                                         !- Friday
   10017,                                         !- Saturday
   10017,                                         !- Holiday
   10017,                                         !- SummerDesignDay
   11,                                            !- WinterDesignDay
   10017,                                         !- CustomDay1
   10017;                                         !- CustomDay2

Schedule:Week:Daily, CEV HORARIO CARGAS INTERNAS ASOCIADAS A OCUPANTES 2O22_Jun,  !- A Schedule:Week:Daily contains 12 DAYSCHEDULES, one for each day type
   10017,                                         !- Sunday
   10017,                                         !- Monday
   10017,                                         !- Tuesday
   10017,                                         !- Wednesday
   10017,                                         !- Thursday
   10017,                                         !- Friday
   10017,                                         !- Saturday
   10017,                                         !- Holiday
   10017,                                         !- SummerDesignDay
   11,                                            !- WinterDesignDay
   10017,                                         !- CustomDay1
   10017;                                         !- CustomDay2

Schedule:Week:Daily, CEV HORARIO CARGAS INTERNAS ASOCIADAS A OCUPANTES 2O22_Jul,  !- A Schedule:Week:Daily contains 12 DAYSCHEDULES, one for each day type
   10017,                                         !- Sunday
   10017,                                         !- Monday
   10017,                                         !- Tuesday
   10017,                                         !- Wednesday
   10017,                                         !- Thursday
   10017,                                         !- Friday
   10017,                                         !- Saturday
   10017,                                         !- Holiday
   10017,                                         !- SummerDesignDay
   11,                                            !- WinterDesignDay
   10017,                                         !- CustomDay1