! File generated by DesignBuilder - 7.0.2.006 03/12/2023 - 21:02:37
! Source file: D:\OneDrive - UNIVERSIDAD DE SEVILLA\Papers OneDrive\Integration of aPMV in EnergyPlus\Case study\ALJARAFE CENTER_mod.dsb

! Geometry convention template : External measurements
! Zone geometry and surface areas : 2-Outer
! Zone volume calculation method : 1-Inner
! Zone floor area calculation method : 1-Inner
! Window to wall ratio method : 1-Inner

Version, 9.4;                               !- Version Identifier

RunPeriod,                                        !- Annual simulation
   CICSE Aljarafe center (01-01:31-12),           !- Location
   1,1,,                                          !- Start Month , Day
   12,31,,                                        !- End Month , Day
   Tuesday,                                       !- Day of Week for Start Day
   No,                                            !- Use weather file holidays/special day periods
   No,                                            !- Use WeatherFile DaylightSavingPeriod - will use daylight saving time shown below
   Yes,                                           !- Apply Weekend Holiday Rule - will reassign weekend holidays to Monday
   Yes,                                           !- use weather file rain indicators
   Yes,                                           !- use weather file snow indicators
   No;                                            !- Treat Weather as Actual

RunPeriodControl:DaylightSavingTime, Last Sunday in March,Last Sunday in October;  !- Daylight saving dates - one hour is added to local mean time to obtain the locally observed time during this period

! Hourly weather file: C:\ProgramData\DesignBuilder\Weather Data\zonaB4.epw

Site:Location,CICSE Aljarafe center (01-01:31-12)  (01-01:31-12),  !- Location Name
   37.42,                                         !- Latitude
   -5.9,                                          !- Longitude
   1,                                             !- Time Zone
   9;                                             !- Elevation {m}

Site:GroundTemperature:BuildingSurface,           !- Annual ground temperatures - 1 value for each month
   18,                                            !- Jan ground temperature
   18,                                            !- Feb ground temperature
   18,                                            !- Mar ground temperature
   18,                                            !- Apr ground temperature
   18,                                            !- May ground temperature
   18,                                            !- Jun ground temperature
   18,                                            !- Jul ground temperature
   18,                                            !- Aug ground temperature
   18,                                            !- Sep ground temperature
   18,                                            !- Oct ground temperature
   18,                                            !- Nov ground temperature
   18;                                            !- Dec ground temperature

Site:GroundTemperature:Deep,                      !- Annual ground temperatures - 1 value for each month
   14,                                            !- Jan deep ground temperature
   14,                                            !- Feb deep ground temperature
   14,                                            !- Mar deep ground temperature
   14,                                            !- Apr deep ground temperature
   14,                                            !- May deep ground temperature
   14,                                            !- Jun deep ground temperature
   14,                                            !- Jul deep ground temperature
   14,                                            !- Aug deep ground temperature
   14,                                            !- Sep deep ground temperature
   14,                                            !- Oct deep ground temperature
   14,                                            !- Nov deep ground temperature
   14;                                            !- Dec deep ground temperature

Site:GroundTemperature:Shallow,                   !- Annual ground temperatures - 1 value for each month
   14,                                            !- Jan shallow ground temperature
   14,                                            !- Feb shallow ground temperature
   14,                                            !- Mar shallow ground temperature
   14,                                            !- Apr shallow ground temperature
   14,                                            !- May shallow ground temperature
   14,                                            !- Jun shallow ground temperature
   14,                                            !- Jul shallow ground temperature
   14,                                            !- Aug shallow ground temperature
   14,                                            !- Sep shallow ground temperature
   14,                                            !- Oct shallow ground temperature
   14,                                            !- Nov shallow ground temperature
   14;                                            !- Dec shallow ground temperature

Site:GroundTemperature:FCfactorMethod,            !- Annual ground temperatures - 1 value for each month
   13.60,                                         !- January FCfactorMethod ground temperature {C}
   11.20,                                         !- Februry FCfactorMethod ground temperature {C}
   10.55,                                         !- March FCfactorMethod ground temperature {C}
   11.12,                                         !- April FCfactorMethod ground temperature {C}
   14.35,                                         !- May FCfactorMethod ground temperature {C}
   17.97,                                         !- June FCfactorMethod ground temperature {C}
   21.38,                                         !- July FCfactorMethod ground temperature {C}
   23.85,                                         !- August FCfactorMethod ground temperature {C}
   24.57,                                         !- September FCfactorMethod ground temperature {C}
   23.41,                                         !- October FCfactorMethod ground temperature {C}
   20.62,                                         !- November FCfactorMethod ground temperature {C}
   17.10;                                         !- December FCfactorMethod ground temperature {C}

Site:GroundReflectance,                           !- Annual ground reflectances - 1 value for each month
   0.2,                                           !- Jan ground reflectance
   0.2,                                           !- Feb ground reflectance
   0.2,                                           !- Mar ground reflectance
   0.2,                                           !- Apr ground reflectance
   0.2,                                           !- May ground reflectance
   0.2,                                           !- Jun ground reflectance
   0.2,                                           !- Jul ground reflectance
   0.2,                                           !- Aug ground reflectance
   0.2,                                           !- Sep ground reflectance
   0.2,                                           !- Oct ground reflectance
   0.2,                                           !- Nov ground reflectance
   0.2;                                           !- Dec ground reflectance

Site:GroundReflectance:SnowModifier,
   2.0,                                           !- Ground Reflected Solar Modifier
   2.0;                                           !- Daylighting Ground Reflected Solar Modifier

SimulationControl,
   Yes,                                           !- Do the zone sizing calculation
   Yes,                                           !- Do the system sizing calculation
   Yes,                                           !- Do the plant sizing calculation
   No,                                            !- Do the design day calculation
   Yes;                                           !- Do the weather file calculation


SizingPeriod:DesignDay, Summer Design Day in CICSE Aljarafe center (01-01:31-12) Jul,  !- Design Day Name
   7,                                             !- Month
   15,                                            !- Day of Month
   SummerDesignDay,                               !- Day Type -- used for schedules
   39.8,                                          !- Maximum Dry-Bulb Temperature {C}
   16.1,                                          !- Daily Dry-Bulb Temperature Range {C}
   ,                                              !- Dry-Bulb Temperature Range Modifier Type
   ,                                              !- Dry-Bulb Temperature Range Modifier Schedule
   WetBulb,                                       !- Humidity Condition Type
   23.6,                                          !- Wetbulb at Maximum Dry-Bulb{C}
   ,                                              !- Humidity Condition Day Schedule Name
   ,                                              !- Humidity Ratio at Maximum Dry-Bulb
   ,                                              !- Enthalpy Ratio at Maximum Dry-Bulb
   ,                                              !- Daily Wet-Bulb Temperature Range
   101216.9,                                      !- Barometric Pressure {N/M**2}
   0,                                             !- Wind Speed {m/s}
   0,                                             !- Wind Direction {Degrees N=0, S=180}
   No,                                            !- Rain Indicator
   No,                                            !- Snow on ground indicator
   Yes,                                           !- Daylight Savings Time Indicator
   ASHRAEClearSky,                                !- Solar Model Indicator
   ,                                              !- Beam Solar Day Schedule Name
   ,                                              !- Diffuse Solar Day Schedule Name
   ,                                              !- ASHRAE Clear Sky Optical Depth for Beam Irradiance (taub)
   ,                                              !- ASHRAE Clear Sky Optical Depth for Diffuse Irradiance (taud)
   0.98;                                          !- Clearness {0.0 to 1.2}

SizingPeriod:DesignDay, Winter Design Day in CICSE Aljarafe center (01-01:31-12),  !- Design Day Name
   1,                                             !- Month
   15,                                            !- Day of Month
   WinterDesignDay,                               !- Day Type -- used for schedules
   1.9,                                           !- Max Dry-Bulb {C}
   0,                                             !- Daily Temp Range {C}
   ,                                              !- Dry-Bulb Temperature Range Modifier Type
   ,                                              !- Dry-Bulb Temperature Range Modifier Schedule
   WetBulb,                                       !- Humidity Condition Type
   1.9,                                           !- Wet-Bulb at Max {C}
   ,                                              !- Humidity Condition Day Schedule Name
   ,                                              !- Humidity Ratio at Maximum Dry-Bulb
   ,                                              !- Enthalpy Ratio at Maximum Dry-Bulb
   ,                                              !- Daily Wet-Bulb Temperature Range
   101216.9,                                      !- Barometric Pressure {N/M**2}
   10.2,                                          !- Wind Speed {M/Sec}
   0,                                             !- Wind Direction {Degrees N=0, S=180}
   No,                                            !- Rain Indicator
   No,                                            !- Snow on ground indicator
   No,                                            !- Daylight Savings Time Indicator
   ,                                              !- Solar Model Indicator
   ,                                              !- Beam Solar Day Schedule Name
   ,                                              !- Diffuse Solar Day Schedule Name
   ,                                              !- ASHRAE Clear Sky Optical Depth for Beam Irradiance (taub)
   ,                                              !- ASHRAE Clear Sky Optical Depth for Diffuse Irradiance (taud)
   0;                                             !- Clearness {0.0 to 1.2} - gives no sun (but does include long wave radiant heat exchange with sky)

Timestep, 6;                                      !- Timesteps/hour

ConvergenceLimits,
   1,                                             !- Minimum System Time Step (0=same as zone time step)
   25;                                            !- Maximum HVAC Iterations (1=min, 20=default)

ScheduleTypeLimits, Any Number;                         ! Not limited
ScheduleTypeLimits, Fraction,     0.0, 1.0, CONTINUOUS;
ScheduleTypeLimits, Temperature,  -60, 200, CONTINUOUS;
ScheduleTypeLimits, Control Type,   0,   4, DISCRETE;
ScheduleTypeLimits, On/Off,         0,   1, DISCRETE;

Schedule:Compact,
      On,                                         ! Name
      Any Number,                                 ! Type
      Through: 12/31,                             ! Type
      For: AllDays,                               ! All days in year
      Until: 24:00,                               ! All hours in day
       1;

Schedule:Compact,
      Off,                                        ! Name
      Any Number,                                 ! Type
      Through: 12/31,                             ! Type
      For: AllDays,                               ! All days in year
      Until: 24:00,                               ! All hours in day
       0;

Schedule:Compact,
      Work efficiency,                            ! Name
      Any Number,                                 ! Type
      Through: 12/31,                             ! Type
      For: AllDays,                               ! All days in year
      Until: 24:00,                               ! All hours in day
       0;

Schedule:Compact,
      OpaqueShade,                                ! Name
      Any Number,                                 ! Type
      Through: 12/31,                             ! Type
      For: AllDays,                               ! All days in year
      Until: 24:00,                               ! All hours in day
       0;

Schedule:Compact,
    Zone Comfort Control Type Sched,              !- Name
    Control Type,                                 !- Schedule Type Limits Name
    Through: 12/31,                               !- Field 1
    For: AllDays,                                 !- Field 2
    Until: 24:00,                                 !- Field 3
    4;                                            !- Field 4

Schedule:Compact,
    Design Days Only,                             !- Name
    Any Number,                                   !- Schedule Type Limits Name
    Through: 12/31,                               !- Field 1
    For: SummerDesignDay WinterDesignDay,         !- Field 2
    Until: 24:00,                                 !- Field 3
    1,                                            !- Field 4
    For: AllOtherDays,                            !- Field 2
    Until: 24:00,                                 !- Field 3
    0;

! off heating day
Schedule:Day:Hourly,  0, Any Number,
   0,0,0,0,0,0,0,0,0,0,0,0,0,0,0,0,0,0,0,0,0,0,0,0;

! off cooling day
Schedule:Day:Hourly,  50, Any Number,
   50,50,50,50,50,50,50,50,50,50,50,50,50,50,50,50,50,50,50,50,50,50,50,50;

! used in seasonal schedules
Schedule:Day:Hourly,  Off, Fraction,
   0,0,0,0,0,0,0,0,0,0,0,0,0,0,0,0,0,0,0,0,0,0,0,0;

Schedule:Week:Daily, Off,
   Off,Off,Off,Off,
   Off,Off,Off,Off,
   Off,Off,Off,Off;

! -------------------- Control type schedules (for heating & cooling) ----------------------

Schedule:Day:Hourly, Summer Control Type Day Sch, Control Type,
   4,4,4,4,4,4,4,4,4,4,4,4,4,4,4,4,4,4,4,4,4,4,4,4;

Schedule:Day:Hourly, Winter Control Type Day Sch, Control Type,
   4,4,4,4,4,4,4,4,4,4,4,4,4,4,4,4,4,4,4,4,4,4,4,4;

Schedule:Day:Hourly, Summer Control Type Day Sch - cool, Control Type,
   2,2,2,2,2,2,2,2,2,2,2,2,2,2,2,2,2,2,2,2,2,2,2,2;

Schedule:Day:Hourly, Winter Control Type Day Sch - heat, Control Type,
   1,1,1,1,1,1,1,1,1,1,1,1,1,1,1,1,1,1,1,1,1,1,1,1;

Schedule:Week:Daily, Summer Control Type Week Sch,
   Summer Control Type Day Sch,Summer Control Type Day Sch,Summer Control Type Day Sch,
   Summer Control Type Day Sch,Summer Control Type Day Sch,Summer Control Type Day Sch,
   Summer Control Type Day Sch,Summer Control Type Day Sch,Summer Control Type Day Sch,
   Summer Control Type Day Sch,Summer Control Type Day Sch,Summer Control Type Day Sch;

Schedule:Week:Daily, Winter Control Type Week Sch,
   Winter Control Type Day Sch,Winter Control Type Day Sch,Winter Control Type Day Sch,
   Winter Control Type Day Sch,Winter Control Type Day Sch,Winter Control Type Day Sch,
   Winter Control Type Day Sch,Winter Control Type Day Sch,Winter Control Type Day Sch,
   Winter Control Type Day Sch,Winter Control Type Day Sch,Winter Control Type Day Sch;

Schedule:Week:Daily, Summer Control Type Week Sch - cool,
   Summer Control Type Day Sch - cool,Summer Control Type Day Sch - cool,Summer Control Type Day Sch - cool,
   Summer Control Type Day Sch - cool,Summer Control Type Day Sch - cool,Summer Control Type Day Sch - cool,
   Summer Control Type Day Sch - cool,Summer Control Type Day Sch - cool,Summer Control Type Day Sch - cool,
   Summer Control Type Day Sch - cool,Summer Control Type Day Sch - cool,Summer Control Type Day Sch - cool;

Schedule:Week:Daily, Winter Control Type Week Sch - heat,
   Winter Control Type Day Sch - heat,Winter Control Type Day Sch - heat,Winter Control Type Day Sch - heat,
   Winter Control Type Day Sch - heat,Winter Control Type Day Sch - heat,Winter Control Type Day Sch - heat,
   Winter Control Type Day Sch - heat,Winter Control Type Day Sch - heat,Winter Control Type Day Sch - heat,
   Winter Control Type Day Sch - heat,Winter Control Type Day Sch - heat,Winter Control Type Day Sch - heat;

!Material:InfraredTransparent,
!IRTMaterial; !- Name

!Construction,
!IRTSurface,  !- Name
!IRTMaterial; !- Outside Layer





Material:NoMass,
LinearBridgingLayer,                  ! Material Name
Rough,                                ! Roughness
0.6267 ,                              ! Resistance {M**2K/W} will give Total Resistance 1
0.0100000 ,                           ! Thermal Absorptance
0.0100000 ,                           ! Solar Absorptance
0.0100000 ;                           ! Visible Absorptance

Construction,
LinearBridgingConstruction,           !- Name
LinearBridgingLayer;                  !- Layer

Schedule:Compact,
TypOperativeTempControlSch,
Temperature,
Through: 31 Dec,
For: SummerDesignDay WinterDesignDay,
Until: 24:00, 0.0,
For: AllOtherDays,
Until: 24:00, 0.5;

Schedule:Compact,
      OnWinterDesignDay,                          ! Name
      Any Number,
      Through: 12/31,
      For: WinterDesignDay,                       ! All days in year
      Until: 24:00, 1,
      For: AllOtherDays,
      Until: 24:00, 0;

Schedule:Compact,
      OnSummerDesignDay,                          ! Name
      Any Number,
      Through: 12/31,
      For: SummerDesignDay,                       ! All days in year
      Until: 24:00, 1,
      For: AllOtherDays,
      Until: 24:00, 0;

Material:InfraredTransparent,
IRTMaterial; !- Name

Construction,
IRTSurface,  !- Name
IRTMaterial; !- Outside Layer


! Schedule: On 24/7
Schedule:Compact,
On 24/7,
Any Number,
Through: 12/31,
For: AllDays,
Until: 24:00,   1 ;


! Schedule: Heating set point schedule
Schedule:Compact,
Heating set point schedule,
Any Number,
Through: 12/31,
For: AllDays,
Until: 24:00,   20 ;


! Schedule: Cooling set point schedule
Schedule:Compact,
Cooling set point schedule,
Any Number,
Through: 12/31,
For: AllDays,
Until: 24:00,   24 ;


! Schedule: Control type schedule: Always 4
Schedule:Compact,
Control type schedule: Always 4,
Any Number,
Through: 12/31,
For: AllDays,
Until: 24:00,    4 ;


! Schedule: Relative humidity setpoint schedule: Always 50.00
Schedule:Compact,
Relative humidity setpoint schedule: Always 50.00,
Any Number,
Through: 12/31,
For: AllDays,
Until: 24:00,   50 ;


! Schedule: Heating Fanger comfort setpoint: Always -0.5
Schedule:Compact,
Heating Fanger comfort setpoint: Always -0.5,
Any Number,
Through: 12/31,
For: AllDays,
Until: 24:00,  -0.5;


! Schedule: Cooling Fanger comfort setpoint: Always  0.1
Schedule:Compact,
Cooling Fanger comfort setpoint: Always  0.1,
Any Number,
Through: 12/31,
For: AllDays,
Until: 24:00,   0.1;


! Schedule: Zone CO2 setpoint: Always 900ppm
Schedule:Compact,
Zone CO2 setpoint: Always 900ppm,
Any Number,
Through: 12/31,
For: AllDays,
Until: 24:00,  900  ;


! Schedule: Min CO2 concentration: Always 600ppm
Schedule:Compact,
Min CO2 concentration: Always 600ppm,
Any Number,
Through: 12/31,
For: AllDays,
Until: 24:00,  600  ;


! Schedule: Generic contaminant setpoint: Always 0.5ppm
Schedule:Compact,
Generic contaminant setpoint: Always 0.5ppm,
Any Number,
Through: 12/31,
For: AllDays,
Until: 24:00,  0.5  ;


! Schedule: Air distribution effectiveness (always 1)
Schedule:Compact,
Air distribution effectiveness (always 1),
Any Number,
Through: 12/31,
For: AllDays,
Until: 24:00, 1;


! Schedule: Office_OpenOff_Occ
Schedule:Compact,
Office_OpenOff_Occ,
Fraction,
Through: 31 Dec,
For: Weekdays SummerDesignDay,
Until: 07:00, 0,
Until: 08:00, 0.25,
Until: 09:00, 0.5,
Until: 12:00, 1,
Until: 14:00, 0.75,
Until: 17:00, 1,
Until: 18:00, 0.5,
Until: 19:00, 0.25,
Until: 24:00, 0,
For: Weekends,
Until: 24:00, 0,
For: Holidays,
Until: 24:00, 0,
For: WinterDesignDay AllOtherDays,
Until: 24:00, 0;


! Schedule: Office_OpenOff_Light
Schedule:Compact,
Office_OpenOff_Light,
Fraction,
Through: 31 Dec,
For: Weekdays SummerDesignDay,
Until: 07:00, 0,
Until: 19:00, 1,
Until: 24:00, 0,
For: Weekends,
Until: 24:00, 0,
For: Holidays,
Until: 24:00, 0,
For: WinterDesignDay AllOtherDays,
Until: 24:00, 0;


! Schedule: Max CO2 concentration: Always 900ppm
Schedule:Compact,
Max CO2 concentration: Always 900ppm,
Any Number,
Through: 12/31,
For: AllDays,
Until: 24:00,  900  ;


! Schedule: Default Air Velocity for Comfort Calculations
Schedule:Compact,
Default Air Velocity for Comfort Calculations,
Any Number,
Through: 12/31,
For: AllDays,
Until: 24:00,   0.1370 ;


! Schedule: Cooling fraction schedule
Schedule:Compact,
Cooling fraction schedule,
Fraction,
Through: 31 Dec,
For: AllDays,
Until: 24:00, 1 ;


! Schedule: Heating fraction schedule
Schedule:Compact,
Heating fraction schedule,
Fraction,
Through: 31 Dec,
For: AllDays,
Until: 24:00, 1 ;


WindowMaterial:Gas,1017,                          !- AIR 12MM
   Air,                                           !- Gas type (Air - Argon - Krypton - Xenon - SF6 - Custom)
    .012;                                         !- Thickness {m}

WindowMaterial:Gas,Half thickness 1017,           !- AIR 12MM
   Air,                                           !- Gas type (Air - Argon - Krypton - Xenon - SF6 - Custom)
    .006;                                         !- Thickness {m}



WindowMaterial:Glazing,3,                         !- Generic CLEAR 6MM
   SpectralAverage,                               !- Optical data type {SpectralAverage or Spectral}
   ,                                              !- Name of spectral data set when Optical Data Type = Spectral
   .006,                                          !- Thickness {m}
   .775,                                          !- Solar transmittance at normal incidence
   .071,                                          !- Solar reflectance at normal incidence: front side
   .071,                                          !- Solar reflectance at normal incidence: back side
   .881,                                          !- Visible transmittance at normal incidence
   .080,                                          !- Visible reflectance at normal incidence: front side
   .080,                                          !- Visible reflectance at normal incidence: back side
   .0,                                            !- IR transmittance at normal incidence
   .84,                                           !- IR emissivity: front side
   .84,                                           !- IR emissivity: back side
   .9,                                            !- Conductivity {W/m-K}
   1;                                             !- Dirt Correction Factor for Solar and Visible Transmittance
! Placa de yeso laminado [PYL] 750 < d < 900- thickness 0.015
Material, Placa de yeso laminado [PYL] 750 < d < 900_.015,
   Rough,                                         !- Roughness
   .015,                                          !- Thickness {m}
   0.25,                                          !- Conductivity {w/m-K}
   825,                                           !- Density {kg/m3}
   1000,                                          !- Specific Heat {J/kg-K}
   0.9,                                           !- Thermal Emittance
   0.5,                                           !- Solar Absorptance
   0.5;                                           !- Visible Absorptance

! FR Sin Entrevigado -Canto 350 mm- thickness 0.35
Material, FR Sin Entrevigado -Canto 350 mm_.35,
   Rough,                                         !- Roughness
   .35,                                           !- Thickness {m}
   4.375,                                         !- Conductivity {w/m-K}
   2350,                                          !- Density {kg/m3}
   1000,                                          !- Specific Heat {J/kg-K}
   0.9,                                           !- Thermal Emittance
   0.6,                                           !- Solar Absorptance
   0.6;                                           !- Visible Absorptance

! Marmol [2600 < d < 2800]- thickness 0.045
Material, Marmol [2600 < d < 2800]_.045,
   Rough,                                         !- Roughness
   .045,                                          !- Thickness {m}
   3.5,                                           !- Conductivity {w/m-K}
   2700,                                          !- Density {kg/m3}
   1000,                                          !- Specific Heat {J/kg-K}
   0.9,                                           !- Thermal Emittance
   0.58,                                          !- Solar Absorptance
   0.58;                                          !- Visible Absorptance

! Concrete, cast - glass reinforced- thickness 0.1
Material, Concrete cast - glass reinforced_.1,
   Rough,                                         !- Roughness
   .1,                                            !- Thickness {m}
   0.9,                                           !- Conductivity {w/m-K}
   1950,                                          !- Density {kg/m3}
   840,                                           !- Specific Heat {J/kg-K}
   0.9,                                           !- Thermal Emittance
   0.6,                                           !- Solar Absorptance
   0.6;                                           !- Visible Absorptance

! MW Lana mineral [0.05 W/[mK]]- thickness 0.04
Material, MW Lana mineral [0.05 W/[mK]]_.04,
   Rough,                                         !- Roughness
   .04,                                           !- Thickness {m}
   0.05,                                          !- Conductivity {w/m-K}
   40,                                            !- Density {kg/m3}
   1000,                                          !- Specific Heat {J/kg-K}
   0.9,                                           !- Thermal Emittance
   0.6,                                           !- Solar Absorptance
   0.6;                                           !- Visible Absorptance

! Placa de yeso laminado [PYL] 750 < d < 900- thickness 0.013
Material, Placa de yeso laminado [PYL] 750 < d < 900_.013,
   Rough,                                         !- Roughness
   .013,                                          !- Thickness {m}
   0.25,                                          !- Conductivity {w/m-K}
   825,                                           !- Density {kg/m3}
   1000,                                          !- Specific Heat {J/kg-K}
   0.9,                                           !- Thermal Emittance
   0.5,                                           !- Solar Absorptance
   0.5;                                           !- Visible Absorptance

! Gypsum Plasterboard- thickness 0.025
Material, Gypsum Plasterboard_.025,
   Rough,                                         !- Roughness
   .025,                                          !- Thickness {m}
   0.25,                                          !- Conductivity {w/m-K}
   900,                                           !- Density {kg/m3}
   1000,                                          !- Specific Heat {J/kg-K}
   0.9,                                           !- Thermal Emittance
   0.5,                                           !- Solar Absorptance
   0.5;                                           !- Visible Absorptance

! MW Lana mineral [0.05 W/[mK]]- thickness 0.1
Material, MW Lana mineral [0.05 W/[mK]]_.1,
   Rough,                                         !- Roughness
   .1,                                            !- Thickness {m}
   0.05,                                          !- Conductivity {w/m-K}
   40,                                            !- Density {kg/m3}
   1000,                                          !- Specific Heat {J/kg-K}