!- Windows Line endings 

Version,
    9.4;                      !- Version Identifier

SimulationControl,
    Yes,                      !- Do Zone Sizing Calculation
    Yes,                      !- Do System Sizing Calculation
    Yes,                      !- Do Plant Sizing Calculation
    No,                       !- Run Simulation for Sizing Periods
    Yes;                      !- Run Simulation for Weather File Run Periods

Building,
    Building,                 !- Name
    0,                        !- North Axis
    Suburbs,                  !- Terrain
    0.04,                     !- Loads Convergence Tolerance Value
    0.4,                      !- Temperature Convergence Tolerance Value
    FullExterior,             !- Solar Distribution
    25,                       !- Maximum Number of Warmup Days
    6;                        !- Minimum Number of Warmup Days

ShadowCalculation,
    PolygonClipping,          !- Shading Calculation Method
    Periodic,                 !- Shading Calculation Update Frequency Method
    20,                       !- Shading Calculation Update Frequency
    15000,                    !- Maximum Figures in Shadow Overlap Calculations
    SutherlandHodgman,        !- Polygon Clipping Algorithm
    ,                         !- Pixel Counting Resolution
    SimpleSkyDiffuseModeling;    !- Sky Diffuse Modeling Algorithm

SurfaceConvectionAlgorithm:Inside,
    TARP;                     !- Algorithm

SurfaceConvectionAlgorithm:Outside,
    DOE-2;                    !- Algorithm

HeatBalanceAlgorithm,
    ConductionTransferFunction,    !- Algorithm
    2000,                     !- Surface Temperature Upper Limit
    0.00000001,               !- Minimum Surface Convection Heat Transfer Coefficient Value
    1000;                     !- Maximum Surface Convection Heat Transfer Coefficient Value

ZoneCapacitanceMultiplier:ResearchSpecial,
    All,                      !- Name
    ,                         !- Zone or ZoneList Name
    1,                        !- Temperature Capacity Multiplier
    1,                        !- Humidity Capacity Multiplier
    1,                        !- Carbon Dioxide Capacity Multiplier
    1;                        !- Generic Contaminant Capacity Multiplier

Timestep,
    10;                       !- Number of Timesteps per Hour

ConvergenceLimits,
    1,                        !- Minimum System Timestep
    25;                       !- Maximum HVAC Iterations

Site:Location,
    Untitled (01-01:31-12)  (01-01:31-12),    !- Name
    37.18,                    !- Latitude
    -3.78,                    !- Longitude
    1,                        !- Time Zone
    570;                      !- Elevation

SizingPeriod:DesignDay,
    Summer Design Day in Untitled (01-01:31-12) Jun,    !- Name
    6,                        !- Month
    15,                       !- Day of Month
    SummerDesignDay,          !- Day Type
    37.5,                     !- Maximum DryBulb Temperature
    19.6,                     !- Daily DryBulb Temperature Range
    ,                         !- DryBulb Temperature Range Modifier Type
    ,                         !- DryBulb Temperature Range Modifier Day Schedule Name
    WetBulb,                  !- Humidity Condition Type
    19.6,                     !- Wetbulb or DewPoint at Maximum DryBulb
    ,                         !- Humidity Condition Day Schedule Name
    ,                         !- Humidity Ratio at Maximum DryBulb
    ,                         !- Enthalpy at Maximum DryBulb
    ,                         !- Daily WetBulb Temperature Range
    94662.2,                  !- Barometric Pressure
    0,                        !- Wind Speed
    0,                        !- Wind Direction
    No,                       !- Rain Indicator
    No,                       !- Snow Indicator
    Yes,                      !- Daylight Saving Time Indicator
    ASHRAEClearSky,           !- Solar Model Indicator
    ,                         !- Beam Solar Day Schedule Name
    ,                         !- Diffuse Solar Day Schedule Name
    ,                         !- ASHRAE Clear Sky Optical Depth for Beam Irradiance taub
    ,                         !- ASHRAE Clear Sky Optical Depth for Diffuse Irradiance taud
    0.98;                     !- Sky Clearness

SizingPeriod:DesignDay,
    Summer Design Day in Untitled (01-01:31-12) Jul,    !- Name
    7,                        !- Month
    15,                       !- Day of Month
    SummerDesignDay,          !- Day Type
    39.9,                     !- Maximum DryBulb Temperature
    20.5,                     !- Daily DryBulb Temperature Range
    ,                         !- DryBulb Temperature Range Modifier Type
    ,                         !- DryBulb Temperature Range Modifier Day Schedule Name
    WetBulb,                  !- Humidity Condition Type
    22.5,                     !- Wetbulb or DewPoint at Maximum DryBulb
    ,                         !- Humidity Condition Day Schedule Name
    ,                         !- Humidity Ratio at Maximum DryBulb
    ,                         !- Enthalpy at Maximum DryBulb
    ,                         !- Daily WetBulb Temperature Range
    94662.2,                  !- Barometric Pressure
    0,                        !- Wind Speed
    0,                        !- Wind Direction
    No,                       !- Rain Indicator
    No,                       !- Snow Indicator
    Yes,                      !- Daylight Saving Time Indicator
    ASHRAEClearSky,           !- Solar Model Indicator
    ,                         !- Beam Solar Day Schedule Name
    ,                         !- Diffuse Solar Day Schedule Name
    ,                         !- ASHRAE Clear Sky Optical Depth for Beam Irradiance taub
    ,                         !- ASHRAE Clear Sky Optical Depth for Diffuse Irradiance taud
    0.98;                     !- Sky Clearness

SizingPeriod:DesignDay,
    Summer Design Day in Untitled (01-01:31-12) Aug,    !- Name
    8,                        !- Month
    15,                       !- Day of Month
    SummerDesignDay,          !- Day Type
    39.1,                     !- Maximum DryBulb Temperature
    20,                       !- Daily DryBulb Temperature Range
    ,                         !- DryBulb Temperature Range Modifier Type
    ,                         !- DryBulb Temperature Range Modifier Day Schedule Name
    WetBulb,                  !- Humidity Condition Type
    21.5,                     !- Wetbulb or DewPoint at Maximum DryBulb
    ,                         !- Humidity Condition Day Schedule Name
    ,                         !- Humidity Ratio at Maximum DryBulb
    ,                         !- Enthalpy at Maximum DryBulb
    ,                         !- Daily WetBulb Temperature Range
    94662.2,                  !- Barometric Pressure
    0,                        !- Wind Speed
    0,                        !- Wind Direction
    No,                       !- Rain Indicator
    No,                       !- Snow Indicator
    Yes,                      !- Daylight Saving Time Indicator
    ASHRAEClearSky,           !- Solar Model Indicator
    ,                         !- Beam Solar Day Schedule Name
    ,                         !- Diffuse Solar Day Schedule Name
    ,                         !- ASHRAE Clear Sky Optical Depth for Beam Irradiance taub
    ,                         !- ASHRAE Clear Sky Optical Depth for Diffuse Irradiance taud
    0.98;                     !- Sky Clearness

SizingPeriod:DesignDay,
    Summer Design Day in Untitled (01-01:31-12) Sep,    !- Name
    9,                        !- Month
    15,                       !- Day of Month
    SummerDesignDay,          !- Day Type
    35.1,                     !- Maximum DryBulb Temperature
    18.6,                     !- Daily DryBulb Temperature Range
    ,                         !- DryBulb Temperature Range Modifier Type
    ,                         !- DryBulb Temperature Range Modifier Day Schedule Name
    WetBulb,                  !- Humidity Condition Type
    19.5,                     !- Wetbulb or DewPoint at Maximum DryBulb
    ,                         !- Humidity Condition Day Schedule Name
    ,                         !- Humidity Ratio at Maximum DryBulb
    ,                         !- Enthalpy at Maximum DryBulb
    ,                         !- Daily WetBulb Temperature Range
    94662.2,                  !- Barometric Pressure
    0,                        !- Wind Speed
    0,                        !- Wind Direction
    No,                       !- Rain Indicator
    No,                       !- Snow Indicator
    Yes,                      !- Daylight Saving Time Indicator
    ASHRAEClearSky,           !- Solar Model Indicator
    ,                         !- Beam Solar Day Schedule Name
    ,                         !- Diffuse Solar Day Schedule Name
    ,                         !- ASHRAE Clear Sky Optical Depth for Beam Irradiance taub
    ,                         !- ASHRAE Clear Sky Optical Depth for Diffuse Irradiance taud
    0.98;                     !- Sky Clearness

SizingPeriod:DesignDay,
    Winter Design Day in Untitled (01-01:31-12),    !- Name
    1,                        !- Month
    15,                       !- Day of Month
    WinterDesignDay,          !- Day Type
    -3.7,                     !- Maximum DryBulb Temperature
    0,                        !- Daily DryBulb Temperature Range
    ,                         !- DryBulb Temperature Range Modifier Type
    ,                         !- DryBulb Temperature Range Modifier Day Schedule Name
    WetBulb,                  !- Humidity Condition Type
    -3.7,                     !- Wetbulb or DewPoint at Maximum DryBulb
    ,                         !- Humidity Condition Day Schedule Name
    ,                         !- Humidity Ratio at Maximum DryBulb
    ,                         !- Enthalpy at Maximum DryBulb
    ,                         !- Daily WetBulb Temperature Range
    94662.2,                  !- Barometric Pressure
    0.4,                      !- Wind Speed
    210,                      !- Wind Direction
    No,                       !- Rain Indicator
    No,                       !- Snow Indicator
    No,                       !- Daylight Saving Time Indicator
    ,                         !- Solar Model Indicator
    ,                         !- Beam Solar Day Schedule Name
    ,                         !- Diffuse Solar Day Schedule Name
    ,                         !- ASHRAE Clear Sky Optical Depth for Beam Irradiance taub
    ,                         !- ASHRAE Clear Sky Optical Depth for Diffuse Irradiance taud
    0;                        !- Sky Clearness

RunPeriod,
    Untitled (01-01:31-12),    !- Name
    1,                        !- Begin Month
    1,                        !- Begin Day of Month
    2002,                     !- Begin Year
    12,                       !- End Month
    31,                       !- End Day of Month
    2002,                     !- End Year
    ,                         !- Day of Week for Start Day
    No,                       !- Use Weather File Holidays and Special Days
    No,                       !- Use Weather File Daylight Saving Period
    Yes,                      !- Apply Weekend Holiday Rule
    Yes,                      !- Use Weather File Rain Indicators
    Yes,                      !- Use Weather File Snow Indicators
    No;                       !- Treat Weather as Actual

RunPeriodControl:DaylightSavingTime,
    Last Sunday in March,     !- Start Date
    Last Sunday in October;    !- End Date

Site:GroundTemperature:BuildingSurface,
    18,                       !- January Ground Temperature
    18,                       !- February Ground Temperature
    18,                       !- March Ground Temperature
    18,                       !- April Ground Temperature
    18,                       !- May Ground Temperature
    18,                       !- June Ground Temperature
    18,                       !- July Ground Temperature
    18,                       !- August Ground Temperature
    18,                       !- September Ground Temperature
    18,                       !- October Ground Temperature
    18,                       !- November Ground Temperature
    18;                       !- December Ground Temperature

Site:GroundTemperature:FCfactorMethod,
    7.53,                     !- January Ground Temperature
    6.81,                     !- February Ground Temperature
    8.09,                     !- March Ground Temperature
    10.09,                    !- April Ground Temperature
    15.31,                    !- May Ground Temperature
    19.34,                    !- June Ground Temperature
    22.06,                    !- July Ground Temperature
    22.89,                    !- August Ground Temperature
    21.48,                    !- September Ground Temperature
    18.35,                    !- October Ground Temperature
    14.16,                    !- November Ground Temperature
    10.28;                    !- December Ground Temperature

Site:GroundTemperature:Shallow,
    14,                       !- January Surface Ground Temperature
    14,                       !- February Surface Ground Temperature
    14,                       !- March Surface Ground Temperature
    14,                       !- April Surface Ground Temperature
    14,                       !- May Surface Ground Temperature
    14,                       !- June Surface Ground Temperature
    14,                       !- July Surface Ground Temperature
    14,                       !- August Surface Ground Temperature
    14,                       !- September Surface Ground Temperature
    14,                       !- October Surface Ground Temperature
    14,                       !- November Surface Ground Temperature
    14;                       !- December Surface Ground Temperature

Site:GroundTemperature:Deep,
    14,                       !- January Deep Ground Temperature
    14,                       !- February Deep Ground Temperature
    14,                       !- March Deep Ground Temperature
    14,                       !- April Deep Ground Temperature
    14,                       !- May Deep Ground Temperature
    14,                       !- June Deep Ground Temperature
    14,                       !- July Deep Ground Temperature
    14,                       !- August Deep Ground Temperature
    14,                       !- September Deep Ground Temperature
    14,                       !- October Deep Ground Temperature
    14,                       !- November Deep Ground Temperature
    14;                       !- December Deep Ground Temperature

Site:GroundReflectance,
    0.2,                      !- January Ground Reflectance
    0.2,                      !- February Ground Reflectance
    0.2,                      !- March Ground Reflectance
    0.2,                      !- April Ground Reflectance
    0.2,                      !- May Ground Reflectance
    0.2,                      !- June Ground Reflectance
    0.2,                      !- July Ground Reflectance
    0.2,                      !- August Ground Reflectance
    0.2,                      !- September Ground Reflectance
    0.2,                      !- October Ground Reflectance
    0.2,                      !- November Ground Reflectance
    0.2;                      !- December Ground Reflectance

Site:GroundReflectance:SnowModifier,
    2.0,                      !- Ground Reflected Solar Modifier
    2.0;                      !- Daylighting Ground Reflected Solar Modifier

Site:WaterMainsTemperature,
    Correlation,              !- Calculation Method
    ,                         !- Temperature Schedule Name
    10,                       !- Annual Average Outdoor Air Temperature
    20;                       !- Maximum Difference In Monthly Average Outdoor Air Temperatures

ScheduleTypeLimits,
    Any Number;               !- Name

ScheduleTypeLimits,
    Fraction,                 !- Name
    0.0,                      !- Lower Limit Value
    1.0,                      !- Upper Limit Value
    CONTINUOUS;               !- Numeric Type

ScheduleTypeLimits,
    Temperature,              !- Name
    -60,                      !- Lower Limit Value
    200,                      !- Upper Limit Value
    CONTINUOUS;               !- Numeric Type

ScheduleTypeLimits,
    Control Type,             !- Name
    0,                        !- Lower Limit Value
    4,                        !- Upper Limit Value
    DISCRETE;                 !- Numeric Type

ScheduleTypeLimits,
    On/Off,                   !- Name
    0,                        !- Lower Limit Value
    1,                        !- Upper Limit Value
    DISCRETE;                 !- Numeric Type

Schedule:Day:Hourly,
    0,                        !- Name
    Any Number,               !- Schedule Type Limits Name
    0,                        !- Hour 1
    0,                        !- Hour 2
    0,                        !- Hour 3
    0,                        !- Hour 4
    0,                        !- Hour 5
    0,                        !- Hour 6
    0,                        !- Hour 7
    0,                        !- Hour 8
    0,                        !- Hour 9
    0,                        !- Hour 10
    0,                        !- Hour 11
    0,                        !- Hour 12
    0,                        !- Hour 13
    0,                        !- Hour 14
    0,                        !- Hour 15
    0,                        !- Hour 16
    0,                        !- Hour 17
    0,                        !- Hour 18
    0,                        !- Hour 19
    0,                        !- Hour 20
    0,                        !- Hour 21
    0,                        !- Hour 22
    0,                        !- Hour 23
    0;                        !- Hour 24

Schedule:Day:Hourly,
    50,                       !- Name
    Any Number,               !- Schedule Type Limits Name
    50,                       !- Hour 1
    50,                       !- Hour 2
    50,                       !- Hour 3
    50,                       !- Hour 4
    50,                       !- Hour 5
    50,                       !- Hour 6
    50,                       !- Hour 7
    50,                       !- Hour 8
    50,                       !- Hour 9
    50,                       !- Hour 10
    50,                       !- Hour 11
    50,                       !- Hour 12
    50,                       !- Hour 13
    50,                       !- Hour 14
    50,                       !- Hour 15
    50,                       !- Hour 16
    50,                       !- Hour 17
    50,                       !- Hour 18
    50,                       !- Hour 19
    50,                       !- Hour 20
    50,                       !- Hour 21
    50,                       !- Hour 22
    50,                       !- Hour 23
    50;                       !- Hour 24

Schedule:Day:Hourly,
    Off,                      !- Name
    Fraction,                 !- Schedule Type Limits Name
    0,                        !- Hour 1
    0,                        !- Hour 2
    0,                        !- Hour 3
    0,                        !- Hour 4
    0,                        !- Hour 5
    0,                        !- Hour 6
    0,                        !- Hour 7
    0,                        !- Hour 8
    0,                        !- Hour 9
    0,                        !- Hour 10
    0,                        !- Hour 11
    0,                        !- Hour 12
    0,                        !- Hour 13
    0,                        !- Hour 14
    0,                        !- Hour 15
    0,                        !- Hour 16
    0,                        !- Hour 17
    0,                        !- Hour 18
    0,                        !- Hour 19
    0,                        !- Hour 20
    0,                        !- Hour 21
    0,                        !- Hour 22
    0,                        !- Hour 23
    0;                        !- Hour 24

Schedule:Day:Hourly,
    Summer Control Type Day Sch,    !- Name
    Control Type,             !- Schedule Type Limits Name
    4,                        !- Hour 1
    4,                        !- Hour 2
    4,                        !- Hour 3
    4,                        !- Hour 4
    4,                        !- Hour 5
    4,                        !- Hour 6
    4,                        !- Hour 7
    4,                        !- Hour 8
    4,                        !- Hour 9
    4,                        !- Hour 10
    4,                        !- Hour 11
    4,                        !- Hour 12
    4,                        !- Hour 13
    4,                        !- Hour 14
    4,                        !- Hour 15
    4,                        !- Hour 16
    4,                        !- Hour 17
    4,                        !- Hour 18
    4,                        !- Hour 19
    4,                        !- Hour 20
    4,                        !- Hour 21
    4,                        !- Hour 22
    4,                        !- Hour 23
    4;                        !- Hour 24

Schedule:Day:Hourly,
    Winter Control Type Day Sch,    !- Name
    Control Type,             !- Schedule Type Limits Name
    4,                        !- Hour 1
    4,                        !- Hour 2
    4,                        !- Hour 3
    4,                        !- Hour 4
    4,                        !- Hour 5
    4,                        !- Hour 6
    4,                        !- Hour 7
    4,                        !- Hour 8
    4,                        !- Hour 9
    4,                        !- Hour 10
    4,                        !- Hour 11
    4,                        !- Hour 12
    4,                        !- Hour 13
    4,                        !- Hour 14
    4,                        !- Hour 15
    4,                        !- Hour 16
    4,                        !- Hour 17
    4,                        !- Hour 18
    4,                        !- Hour 19
    4,                        !- Hour 20
    4,                        !- Hour 21
    4,                        !- Hour 22
    4,                        !- Hour 23
    4;                        !- Hour 24

Schedule:Day:Hourly,
    Summer Control Type Day Sch - cool,    !- Name
    Control Type,             !- Schedule Type Limits Name
    2,                        !- Hour 1
    2,                        !- Hour 2
    2,                        !- Hour 3
    2,                        !- Hour 4
    2,                        !- Hour 5
    2,                        !- Hour 6
    2,                        !- Hour 7
    2,                        !- Hour 8
    2,                        !- Hour 9
    2,                        !- Hour 10
    2,                        !- Hour 11
    2,                        !- Hour 12
    2,                        !- Hour 13
    2,                        !- Hour 14
    2,                        !- Hour 15
    2,                        !- Hour 16
    2,                        !- Hour 17
    2,                        !- Hour 18
    2,                        !- Hour 19
    2,                        !- Hour 20
    2,                        !- Hour 21
    2,                        !- Hour 22
    2,                        !- Hour 23
    2;                        !- Hour 24

Schedule:Day:Hourly,
    Winter Control Type Day Sch - heat,    !- Name
    Control Type,             !- Schedule Type Limits Name
    1,                        !- Hour 1
    1,                        !- Hour 2
    1,                        !- Hour 3
    1,                        !- Hour 4
    1,                        !- Hour 5
    1,                        !- Hour 6
    1,                        !- Hour 7
    1,                        !- Hour 8
    1,                        !- Hour 9
    1,                        !- Hour 10
    1,                        !- Hour 11
    1,                        !- Hour 12
    1,                        !- Hour 13
    1,                        !- Hour 14
    1,                        !- Hour 15
    1,                        !- Hour 16
    1,                        !- Hour 17
    1,                        !- Hour 18
    1,                        !- Hour 19
    1,                        !- Hour 20
    1,                        !- Hour 21
    1,                        !- Hour 22
    1,                        !- Hour 23
    1;                        !- Hour 24

Schedule:Week:Daily,
    Off,                      !- Name
    Off,                      !- Sunday ScheduleDay Name
    Off,                      !- Monday ScheduleDay Name
    Off,                      !- Tuesday ScheduleDay Name
    Off,                      !- Wednesday ScheduleDay Name
    Off,                      !- Thursday ScheduleDay Name
    Off,                      !- Friday ScheduleDay Name
    Off,                      !- Saturday ScheduleDay Name
    Off,                      !- Holiday ScheduleDay Name
    Off,                      !- SummerDesignDay ScheduleDay Name
    Off,                      !- WinterDesignDay ScheduleDay Name
    Off,                      !- CustomDay1 ScheduleDay Name
    Off;                      !- CustomDay2 ScheduleDay Name

Schedule:Week:Daily,
    Summer Control Type Week Sch,    !- Name
    Summer Control Type Day Sch,    !- Sunday ScheduleDay Name
    Summer Control Type Day Sch,    !- Monday ScheduleDay Name
    Summer Control Type Day Sch,    !- Tuesday ScheduleDay Name
    Summer Control Type Day Sch,    !- Wednesday ScheduleDay Name
    Summer Control Type Day Sch,    !- Thursday ScheduleDay Name
    Summer Control Type Day Sch,    !- Friday ScheduleDay Name
    Summer Control Type Day Sch,    !- Saturday ScheduleDay Name
    Summer Control Type Day Sch,    !- Holiday ScheduleDay Name
    Summer Control Type Day Sch,    !- SummerDesignDay ScheduleDay Name
    Summer Control Type Day Sch,    !- WinterDesignDay ScheduleDay Name
    Summer Control Type Day Sch,    !- CustomDay1 ScheduleDay Name
    Summer Control Type Day Sch;    !- CustomDay2 ScheduleDay Name

Schedule:Week:Daily,
    Winter Control Type Week Sch,    !- Name
    Winter Control Type Day Sch,    !- Sunday ScheduleDay Name
    Winter Control Type Day Sch,    !- Monday ScheduleDay Name
    Winter Control Type Day Sch,    !- Tuesday ScheduleDay Name
    Winter Control Type Day Sch,    !- Wednesday ScheduleDay Name
    Winter Control Type Day Sch,    !- Thursday ScheduleDay Name
    Winter Control Type Day Sch,    !- Friday ScheduleDay Name
    Winter Control Type Day Sch,    !- Saturday ScheduleDay Name
    Winter Control Type Day Sch,    !- Holiday ScheduleDay Name
    Winter Control Type Day Sch,    !- SummerDesignDay ScheduleDay Name
    Winter Control Type Day Sch,    !- WinterDesignDay ScheduleDay Name
    Winter Control Type Day Sch,    !- CustomDay1 ScheduleDay Name
    Winter Control Type Day Sch;    !- CustomDay2 ScheduleDay Name

Schedule:Week:Daily,
    Summer Control Type Week Sch - cool,    !- Name
    Summer Control Type Day Sch - cool,    !- Sunday ScheduleDay Name
    Summer Control Type Day Sch - cool,    !- Monday ScheduleDay Name
    Summer Control Type Day Sch - cool,    !- Tuesday ScheduleDay Name
    Summer Control Type Day Sch - cool,    !- Wednesday ScheduleDay Name
    Summer Control Type Day Sch - cool,    !- Thursday ScheduleDay Name
    Summer Control Type Day Sch - cool,    !- Friday ScheduleDay Name
    Summer Control Type Day Sch - cool,    !- Saturday ScheduleDay Name
    Summer Control Type Day Sch - cool,    !- Holiday ScheduleDay Name
    Summer Control Type Day Sch - cool,    !- SummerDesignDay ScheduleDay Name
    Summer Control Type Day Sch - cool,    !- WinterDesignDay ScheduleDay Name
    Summer Control Type Day Sch - cool,    !- CustomDay1 ScheduleDay Name
    Summer Control Type Day Sch - cool;    !- CustomDay2 ScheduleDay Name

Schedule:Week:Daily,
    Winter Control Type Week Sch - heat,    !- Name
    Winter Control Type Day Sch - heat,    !- Sunday ScheduleDay Name
    Winter Control Type Day Sch - heat,    !- Monday ScheduleDay Name
    Winter Control Type Day Sch - heat,    !- Tuesday ScheduleDay Name
    Winter Control Type Day Sch - heat,    !- Wednesday ScheduleDay Name
    Winter Control Type Day Sch - heat,    !- Thursday ScheduleDay Name
    Winter Control Type Day Sch - heat,    !- Friday ScheduleDay Name
    Winter Control Type Day Sch - heat,    !- Saturday ScheduleDay Name
    Winter Control Type Day Sch - heat,    !- Holiday ScheduleDay Name
    Winter Control Type Day Sch - heat,    !- SummerDesignDay ScheduleDay Name
    Winter Control Type Day Sch - heat,    !- WinterDesignDay ScheduleDay Name
    Winter Control Type Day Sch - heat,    !- CustomDay1 ScheduleDay Name
    Winter Control Type Day Sch - heat;    !- CustomDay2 ScheduleDay Name

Schedule:Compact,
    On,                       !- Name
    Any Number,               !- Schedule Type Limits Name
    Through: 12/31,           !- Field 1
    For: AllDays,             !- Field 2
    Until: 24:00,             !- Field 3
    1;                        !- Field 4

Schedule:Compact,
    Off,                      !- Name
    Any Number,               !- Schedule Type Limits Name
    Through: 12/31,           !- Field 1
    For: AllDays,             !- Field 2
    Until: 24:00,             !- Field 3
    0;                        !- Field 4

Schedule:Compact,
    Work efficiency,          !- Name
    Any Number,               !- Schedule Type Limits Name
    Through: 12/31,           !- Field 1
    For: AllDays,             !- Field 2
    Until: 24:00,             !- Field 3
    0;                        !- Field 4

Schedule:Compact,
    OpaqueShade,              !- Name
    Any Number,               !- Schedule Type Limits Name
    Through: 12/31,           !- Field 1