!- Windows Line endings 

Version,
    23.2;                     !- Version Identifier

SimulationControl,
    Yes,                      !- Do Zone Sizing Calculation
    Yes,                      !- Do System Sizing Calculation
    Yes,                      !- Do Plant Sizing Calculation
    No,                       !- Run Simulation for Sizing Periods
    Yes,                      !- Run Simulation for Weather File Run Periods
    No,                       !- Do HVAC Sizing Simulation for Sizing Periods
    1;                        !- Maximum Number of HVAC Sizing Simulation Passes

Building,
    -SmallOffice-ASHRAE 169-2013-1A created: 2024-03-22 11:05:47 +0100,    !- Name
    0,                        !- North Axis
    City,                     !- Terrain
    0.04,                     !- Loads Convergence Tolerance Value
    0.2,                      !- Temperature Convergence Tolerance Value
    FullInteriorAndExterior,    !- Solar Distribution
    25,                       !- Maximum Number of Warmup Days
    6;                        !- Minimum Number of Warmup Days

ShadowCalculation,
    PolygonClipping,          !- Shading Calculation Method
    Periodic,                 !- Shading Calculation Update Frequency Method
    30,                       !- Shading Calculation Update Frequency
    15000,                    !- Maximum Figures in Shadow Overlap Calculations
    SutherlandHodgman,        !- Polygon Clipping Algorithm
    512,                      !- Pixel Counting Resolution
    SimpleSkyDiffuseModeling,    !- Sky Diffuse Modeling Algorithm
    No,                       !- Output External Shading Calculation Results
    No,                       !- Disable SelfShading Within Shading Zone Groups
    No;                       !- Disable SelfShading From Shading Zone Groups to Other Zones

SurfaceConvectionAlgorithm:Inside,
    TARP;                     !- Algorithm

SurfaceConvectionAlgorithm:Outside,
    TARP;                     !- Algorithm

HeatBalanceAlgorithm,
    ConductionTransferFunction,    !- Algorithm
    200;                      !- Surface Temperature Upper Limit

ZoneAirHeatBalanceAlgorithm,
    ThirdOrderBackwardDifference,    !- Algorithm
    No,                       !- Do Space Heat Balance for Sizing
    No;                       !- Do Space Heat Balance for Simulation

ZoneAirContaminantBalance,
    No;                       !- Carbon Dioxide Concentration

ZoneCapacitanceMultiplier:ResearchSpecial,
    Zone Capacitance Multiplier Research Special,    !- Name
    ,                         !- Zone or ZoneList Name
    ,                         !- Temperature Capacity Multiplier
    ,                         !- Humidity Capacity Multiplier
    ,                         !- Carbon Dioxide Capacity Multiplier
    ;                         !- Generic Contaminant Capacity Multiplier

Timestep,
    6;                        !- Number of Timesteps per Hour

ConvergenceLimits,
    1,                        !- Minimum System Timestep
    20;                       !- Maximum HVAC Iterations

Site:Location,
    Honolulu Intl Arpt_HI_USA,    !- Name
    21.32,                    !- Latitude
    -157.93,                  !- Longitude
    -10,                      !- Time Zone
    2;                        !- Elevation

SizingPeriod:DesignDay,
    Honolulu Intl Arpt Ann Clg .4% Condns DB=>MWB,    !- Name
    8,                        !- Month
    21,                       !- Day of Month
    SummerDesignDay,          !- Day Type
    32.2,                     !- Maximum DryBulb Temperature
    7.1,                      !- Daily DryBulb Temperature Range
    DefaultMultipliers,       !- DryBulb Temperature Range Modifier Type
    ,                         !- DryBulb Temperature Range Modifier Day Schedule Name
    Wetbulb,                  !- Humidity Condition Type
    23.3,                     !- Wetbulb or DewPoint at Maximum DryBulb
    ,                         !- Humidity Condition Day Schedule Name
    ,                         !- Humidity Ratio at Maximum DryBulb
    ,                         !- Enthalpy at Maximum DryBulb
    ,                         !- Daily WetBulb Temperature Range
    101301,                   !- Barometric Pressure
    6.7,                      !- Wind Speed
    60,                       !- Wind Direction
    No,                       !- Rain Indicator
    No,                       !- Snow Indicator
    No,                       !- Daylight Saving Time Indicator
    ASHRAETau,                !- Solar Model Indicator
    ,                         !- Beam Solar Day Schedule Name
    ,                         !- Diffuse Solar Day Schedule Name
    0.382,                    !- ASHRAE Clear Sky Optical Depth for Beam Irradiance taub
    2.521,                    !- ASHRAE Clear Sky Optical Depth for Diffuse Irradiance taud
    ,                         !- Sky Clearness
    ,                         !- Maximum Number Warmup Days
    FullResetAtBeginEnvironment;    !- Begin Environment Reset Mode

SizingPeriod:DesignDay,
    Honolulu Intl Arpt Ann Htg 99.6% Condns DB,    !- Name
    2,                        !- Month
    21,                       !- Day of Month
    WinterDesignDay,          !- Day Type
    16.2,                     !- Maximum DryBulb Temperature
    0,                        !- Daily DryBulb Temperature Range
    DefaultMultipliers,       !- DryBulb Temperature Range Modifier Type
    ,                         !- DryBulb Temperature Range Modifier Day Schedule Name
    Wetbulb,                  !- Humidity Condition Type
    16.2,                     !- Wetbulb or DewPoint at Maximum DryBulb
    ,                         !- Humidity Condition Day Schedule Name
    ,                         !- Humidity Ratio at Maximum DryBulb
    ,                         !- Enthalpy at Maximum DryBulb
    ,                         !- Daily WetBulb Temperature Range
    101301,                   !- Barometric Pressure
    1.9,                      !- Wind Speed
    320,                      !- Wind Direction
    No,                       !- Rain Indicator
    No,                       !- Snow Indicator
    No,                       !- Daylight Saving Time Indicator
    ASHRAEClearSky,           !- Solar Model Indicator
    ,                         !- Beam Solar Day Schedule Name
    ,                         !- Diffuse Solar Day Schedule Name
    ,                         !- ASHRAE Clear Sky Optical Depth for Beam Irradiance taub
    ,                         !- ASHRAE Clear Sky Optical Depth for Diffuse Irradiance taud
    0,                        !- Sky Clearness
    ,                         !- Maximum Number Warmup Days
    FullResetAtBeginEnvironment;    !- Begin Environment Reset Mode

RunPeriod,
    Run Period 1,             !- Name
    1,                        !- Begin Month
    1,                        !- Begin Day of Month
    2006,                     !- Begin Year
    12,                       !- End Month
    31,                       !- End Day of Month
    2006,                     !- End Year
    Sunday,                   !- Day of Week for Start Day
    No,                       !- Use Weather File Holidays and Special Days
    No,                       !- Use Weather File Daylight Saving Period
    No,                       !- Apply Weekend Holiday Rule
    Yes,                      !- Use Weather File Rain Indicators
    Yes;                      !- Use Weather File Snow Indicators

RunPeriodControl:DaylightSavingTime,
    2nd Sunday in March,      !- Start Date
    1st Sunday in November;    !- End Date

Site:GroundTemperature:FCfactorMethod,
    26.2,                     !- January Ground Temperature
    24.8,                     !- February Ground Temperature
    23.7,                     !- March Ground Temperature
    22.5,                     !- April Ground Temperature
    22.8,                     !- May Ground Temperature
    23.2,                     !- June Ground Temperature
    23.8,                     !- July Ground Temperature
    25.2,                     !- August Ground Temperature
    25.9,                     !- September Ground Temperature
    26.9,                     !- October Ground Temperature
    27.1,                     !- November Ground Temperature
    26.9;                     !- December Ground Temperature

Site:WaterMainsTemperature,
    Correlation,              !- Calculation Method
    ,                         !- Temperature Schedule Name
    24.9166666666667,         !- Annual Average Outdoor Air Temperature
    4.6;                      !- Maximum Difference In Monthly Average Outdoor Air Temperatures

ScheduleTypeLimits,
    Fractional,               !- Name
    0,                        !- Lower Limit Value
    1,                        !- Upper Limit Value
    Continuous;               !- Numeric Type

ScheduleTypeLimits,
    ActivityLevel,            !- Name
    0,                        !- Lower Limit Value
    ,                         !- Upper Limit Value
    Continuous,               !- Numeric Type
    activitylevel;            !- Unit Type

ScheduleTypeLimits,
    Any Number;               !- Name

ScheduleTypeLimits,
    Velocity,                 !- Name
    0,                        !- Lower Limit Value
    ,                         !- Upper Limit Value
    Continuous,               !- Numeric Type
    velocity;                 !- Unit Type

ScheduleTypeLimits,
    Always On Discrete Limits,    !- Name
    0,                        !- Lower Limit Value
    1,                        !- Upper Limit Value
    Discrete,                 !- Numeric Type
    availability;             !- Unit Type

ScheduleTypeLimits,
    OnOff,                    !- Name
    0,                        !- Lower Limit Value
    1,                        !- Upper Limit Value
    Discrete,                 !- Numeric Type
    availability;             !- Unit Type

ScheduleTypeLimits,
    Temperature,              !- Name
    ,                         !- Lower Limit Value
    ,                         !- Upper Limit Value
    Continuous,               !- Numeric Type
    temperature;              !- Unit Type

ScheduleTypeLimits,
    Temperature Schedule Type Limits,    !- Name
    0,                        !- Lower Limit Value
    100,                      !- Upper Limit Value
    Continuous,               !- Numeric Type
    temperature;              !- Unit Type

Schedule:Day:Interval,
    OfficeSmall BLDG_OCC_SCH Default,    !- Name
    Fractional,               !- Schedule Type Limits Name
    No,                       !- Interpolate to Timestep
    24:00,                    !- Time 1
    0;                        !- Value Until Time 1

Schedule:Day:Interval,
    OfficeSmall BLDG_OCC_SCH Wkdy Day,    !- Name
    Fractional,               !- Schedule Type Limits Name
    No,                       !- Interpolate to Timestep
    06:00,                    !- Time 1
    0,                        !- Value Until Time 1
    07:00,                    !- Time 2
    0.11,                     !- Value Until Time 2
    08:00,                    !- Time 3
    0.21,                     !- Value Until Time 3
    12:00,                    !- Time 4
    1,                        !- Value Until Time 4
    13:00,                    !- Time 5
    0.53,                     !- Value Until Time 5
    17:00,                    !- Time 6
    1,                        !- Value Until Time 6
    18:00,                    !- Time 7
    0.32,                     !- Value Until Time 7
    22:00,                    !- Time 8
    0.11,                     !- Value Until Time 8
    23:00,                    !- Time 9
    0.05,                     !- Value Until Time 9
    24:00,                    !- Time 10
    0;                        !- Value Until Time 10

Schedule:Day:Interval,
    OfficeSmall BLDG_OCC_SCH Summer Design Day,    !- Name
    Fractional,               !- Schedule Type Limits Name
    No,                       !- Interpolate to Timestep
    24:00,                    !- Time 1
    1;                        !- Value Until Time 1

Schedule:Day:Interval,
    OfficeSmall BLDG_OCC_SCH Winter Design Day,    !- Name
    Fractional,               !- Schedule Type Limits Name
    No,                       !- Interpolate to Timestep
    24:00,                    !- Time 1
    0;                        !- Value Until Time 1

Schedule:Day:Interval,
    OfficeSmall ACTIVITY_SCH Default,    !- Name
    ActivityLevel,            !- Schedule Type Limits Name
    No,                       !- Interpolate to Timestep
    24:00,                    !- Time 1
    120;                      !- Value Until Time 1

Schedule:Day:Interval,
    OfficeSmall ACTIVITY_SCH Summer Design Day,    !- Name
    ActivityLevel,            !- Schedule Type Limits Name
    No,                       !- Interpolate to Timestep
    24:00,                    !- Time 1
    120;                      !- Value Until Time 1

Schedule:Day:Interval,
    OfficeSmall ACTIVITY_SCH Winter Design Day,    !- Name
    ActivityLevel,            !- Schedule Type Limits Name
    No,                       !- Interpolate to Timestep
    24:00,                    !- Time 1
    120;                      !- Value Until Time 1

Schedule:Day:Interval,
    Work Efficiency Schedule Default,    !- Name
    Fractional,               !- Schedule Type Limits Name
    No,                       !- Interpolate to Timestep
    24:00,                    !- Time 1
    0;                        !- Value Until Time 1

Schedule:Day:Interval,
    Clothing Schedule Default Winter Clothes,    !- Name
    Any Number,               !- Schedule Type Limits Name
    No,                       !- Interpolate to Timestep
    24:00,                    !- Time 1
    1;                        !- Value Until Time 1

Schedule:Day:Interval,
    Clothing Schedule Summer Clothes,    !- Name
    Any Number,               !- Schedule Type Limits Name
    No,                       !- Interpolate to Timestep
    24:00,                    !- Time 1
    0.5;                      !- Value Until Time 1

Schedule:Day:Interval,
    Air Velocity Schedule Default,    !- Name
    Velocity,                 !- Schedule Type Limits Name
    No,                       !- Interpolate to Timestep
    24:00,                    !- Time 1
    0.2;                      !- Value Until Time 1

Schedule:Day:Interval,
    OfficeSmall BLDG_EQUIP_SCH_2013 Wknd Day,    !- Name
    Fractional,               !- Schedule Type Limits Name
    No,                       !- Interpolate to Timestep
    24:00,                    !- Time 1
    0.1637910226;             !- Value Until Time 1

Schedule:Day:Interval,
    OfficeSmall BLDG_EQUIP_SCH_2013 Default|Wkdy Day,    !- Name
    Fractional,               !- Schedule Type Limits Name
    No,                       !- Interpolate to Timestep
    06:00,                    !- Time 1
    0.4094775565,             !- Value Until Time 1
    08:00,                    !- Time 2
    0.4797526335,             !- Value Until Time 2
    12:00,                    !- Time 3
    0.959505267,              !- Value Until Time 3
    13:00,                    !- Time 4
    0.90193495098,            !- Value Until Time 4
    17:00,                    !- Time 5
    0.959505267,              !- Value Until Time 5
    18:00,                    !- Time 6
    0.4797526335,             !- Value Until Time 6
    23:00,                    !- Time 7
    0.1919010534,             !- Value Until Time 7
    24:00,                    !- Time 8
    0.163791022;              !- Value Until Time 8

Schedule:Day:Interval,
    OfficeSmall BLDG_EQUIP_SCH_2013 Default,    !- Name
    Fractional,               !- Schedule Type Limits Name
    No,                       !- Interpolate to Timestep
    06:00,                    !- Time 1
    0.4094775565,             !- Value Until Time 1
    08:00,                    !- Time 2
    0.4797526335,             !- Value Until Time 2
    12:00,                    !- Time 3
    0.959505267,              !- Value Until Time 3
    13:00,                    !- Time 4
    0.90193495098,            !- Value Until Time 4
    17:00,                    !- Time 5
    0.959505267,              !- Value Until Time 5
    18:00,                    !- Time 6
    0.4797526335,             !- Value Until Time 6
    23:00,                    !- Time 7
    0.1919010534,             !- Value Until Time 7
    24:00,                    !- Time 8
    0.163791022;              !- Value Until Time 8

Schedule:Day:Interval,
    OfficeSmall BLDG_EQUIP_SCH_2013 Summer Design Day,    !- Name
    Fractional,               !- Schedule Type Limits Name
    No,                       !- Interpolate to Timestep
    24:00,                    !- Time 1
    1;                        !- Value Until Time 1

Schedule:Day:Interval,
    OfficeSmall BLDG_EQUIP_SCH_2013 Winter Design Day,    !- Name
    Fractional,               !- Schedule Type Limits Name
    No,                       !- Interpolate to Timestep
    24:00,                    !- Time 1
    0;                        !- Value Until Time 1

Schedule:Day:Interval,
    OfficeSmall BLDG_LIGHT_SCH_2013 Wknd Day,    !- Name
    Fractional,               !- Schedule Type Limits Name
    No,                       !- Interpolate to Timestep
    24:00,                    !- Time 1
    0.18;                     !- Value Until Time 1

Schedule:Day:Interval,
    OfficeSmall BLDG_LIGHT_SCH_2013 Default|Wkdy Day,    !- Name
    Fractional,               !- Schedule Type Limits Name
    No,                       !- Interpolate to Timestep
    05:00,                    !- Time 1
    0.18,                     !- Value Until Time 1
    06:00,                    !- Time 2
    0.23,                     !- Value Until Time 2
    07:00,                    !- Time 3
    0.178641345,              !- Value Until Time 3
    08:00,                    !- Time 4
    0.32621463,               !- Value Until Time 4
    12:00,                    !- Time 5
    0.69903135,               !- Value Until Time 5
    13:00,                    !- Time 6
    0.6213612,                !- Value Until Time 6
    17:00,                    !- Time 7
    0.69903135,               !- Value Until Time 7
    18:00,                    !- Time 8
    0.473787915,              !- Value Until Time 8
    20:00,                    !- Time 9
    0.32621463,               !- Value Until Time 9
    22:00,                    !- Time 10
    0.24854448,               !- Value Until Time 10
    23:00,                    !- Time 11
    0.178641345,              !- Value Until Time 11
    24:00,                    !- Time 12
    0.18;                     !- Value Until Time 12

Schedule:Day:Interval,
    OfficeSmall BLDG_LIGHT_SCH_2013 Default,    !- Name
    Fractional,               !- Schedule Type Limits Name
    No,                       !- Interpolate to Timestep
    05:00,                    !- Time 1
    0.18,                     !- Value Until Time 1
    06:00,                    !- Time 2
    0.23,                     !- Value Until Time 2
    07:00,                    !- Time 3
    0.178641345,              !- Value Until Time 3
    08:00,                    !- Time 4
    0.32621463,               !- Value Until Time 4
    12:00,                    !- Time 5
    0.69903135,               !- Value Until Time 5
    13:00,                    !- Time 6
    0.6213612,                !- Value Until Time 6
    17:00,                    !- Time 7
    0.69903135,               !- Value Until Time 7
    18:00,                    !- Time 8
    0.473787915,              !- Value Until Time 8
    20:00,                    !- Time 9
    0.32621463,               !- Value Until Time 9
    22:00,                    !- Time 10
    0.24854448,               !- Value Until Time 10
    23:00,                    !- Time 11
    0.178641345,              !- Value Until Time 11
    24:00,                    !- Time 12
    0.18;                     !- Value Until Time 12

Schedule:Day:Interval,
    OfficeSmall BLDG_LIGHT_SCH_2013 Summer Design Day,    !- Name
    Fractional,               !- Schedule Type Limits Name
    No,                       !- Interpolate to Timestep
    24:00,                    !- Time 1
    1;                        !- Value Until Time 1

Schedule:Day:Interval,
    OfficeSmall BLDG_LIGHT_SCH_2013 Winter Design Day,    !- Name
    Fractional,               !- Schedule Type Limits Name
    No,                       !- Interpolate to Timestep
    24:00,                    !- Time 1
    0;                        !- Value Until Time 1

Schedule:Day:Interval,
    Always On Default,        !- Name
    Fractional,               !- Schedule Type Limits Name
    No,                       !- Interpolate to Timestep
    24:00,                    !- Time 1
    1;                        !- Value Until Time 1

Schedule:Day:Interval,
    CoreZNZNPSZAC1maxOASchDefault,    !- Name
    Fractional,               !- Schedule Type Limits Name
    No,                       !- Interpolate to Timestep
    24:00,                    !- Time 1
    0.75;                     !- Value Until Time 1

Schedule:Day:Interval,
    Economizer Max OA Fraction 70 pct Default,    !- Name
    ,                         !- Schedule Type Limits Name
    No,                       !- Interpolate to Timestep
    24:00,                    !- Time 1
    0.7;                      !- Value Until Time 1

Schedule:Day:Interval,
    Fraction Latent - 0.05 Default,    !- Name
    Fractional,               !- Schedule Type Limits Name
    No,                       !- Interpolate to Timestep
    24:00,                    !- Time 1
    0.05;                     !- Value Until Time 1

Schedule:Day:Interval,
    Fraction Sensible - 0.2 Default,    !- Name
    Fractional,               !- Schedule Type Limits Name
    No,                       !- Interpolate to Timestep
    24:00,                    !- Time 1
    0.2;                      !- Value Until Time 1

Schedule:Day:Interval,
    Mixed Water At Faucet Temp - 140F Default,    !- Name
    Temperature,              !- Schedule Type Limits Name
    No,                       !- Interpolate to Timestep
    24:00,                    !- Time 1
    60.0000000000001;         !- Value Until Time 1

Schedule:Day:Interval,
    OfficeLarge INFIL_SCH_PNNL Default,    !- Name
    Fractional,               !- Schedule Type Limits Name
    No,                       !- Interpolate to Timestep
    24:00,                    !- Time 1
    1;                        !- Value Until Time 1

Schedule:Day:Interval,
    OfficeLarge INFIL_SCH_PNNL SmrDsn|Wkdy Day,    !- Name
    Fractional,               !- Schedule Type Limits Name
    No,                       !- Interpolate to Timestep
    06:00,                    !- Time 1
    1,                        !- Value Until Time 1
    22:00,                    !- Time 2
    0.25,                     !- Value Until Time 2
    24:00,                    !- Time 3
    1;                        !- Value Until Time 3

Schedule:Day:Interval,
    OfficeLarge INFIL_SCH_PNNL Summer Design Day,    !- Name
    Fractional,               !- Schedule Type Limits Name
    No,                       !- Interpolate to Timestep
    06:00,                    !- Time 1
    1,                        !- Value Until Time 1
    22:00,                    !- Time 2
    0.25,                     !- Value Until Time 2
    24:00,                    !- Time 3
    1;                        !- Value Until Time 3

Schedule:Day:Interval,
    OfficeLarge INFIL_SCH_PNNL Winter Design Day,    !- Name
    Fractional,               !- Schedule Type Limits Name
    No,                       !- Interpolate to Timestep
    06:00,                    !- Time 1
    1,                        !- Value Until Time 1
    18:00,                    !- Time 2
    0.25,                     !- Value Until Time 2
    24:00,                    !- Time 3
    1;                        !- Value Until Time 3

Schedule:Day:Interval,
    OfficeLarge INFIL_SCH_PNNL WntrDsn|Sat Day,    !- Name
    Fractional,               !- Schedule Type Limits Name
    No,                       !- Interpolate to Timestep
    06:00,                    !- Time 1
    1,                        !- Value Until Time 1
    18:00,                    !- Time 2
    0.25,                     !- Value Until Time 2
    24:00,                    !- Time 3
    1;                        !- Value Until Time 3

Schedule:Day:Interval,
    OfficeSmall BLDG_SWH_SCH Default,    !- Name
    Fractional,               !- Schedule Type Limits Name
    No,                       !- Interpolate to Timestep
    24:00,                    !- Time 1
    0;                        !- Value Until Time 1

Schedule:Day:Interval,
    OfficeSmall BLDG_SWH_SCH Summer Design Day,    !- Name
    Fractional,               !- Schedule Type Limits Name
    No,                       !- Interpolate to Timestep
    07:00,                    !- Time 1
    0,                        !- Value Until Time 1
    08:00,                    !- Time 2
    0.27,                     !- Value Until Time 2
    09:00,                    !- Time 3
    0.55,                     !- Value Until Time 3
    11:00,                    !- Time 4
    0.64,                     !- Value Until Time 4
    12:00,                    !- Time 5
    0.82,                     !- Value Until Time 5
    13:00,                    !- Time 6
    1,                        !- Value Until Time 6
    14:00,                    !- Time 7
    0.91,                     !- Value Until Time 7
    16:00,                    !- Time 8
    0.55,                     !- Value Until Time 8
    17:00,                    !- Time 9
    0.73,                     !- Value Until Time 9
    19:00,                    !- Time 10
    0.37,                     !- Value Until Time 10
    20:00,                    !- Time 11
    0.18,                     !- Value Until Time 11
    21:00,                    !- Time 12
    0.27,                     !- Value Until Time 12
    22:00,                    !- Time 13
    0.09,                     !- Value Until Time 13
    24:00,                    !- Time 14
    0;                        !- Value Until Time 14

Schedule:Day:Interval,
    OfficeSmall BLDG_SWH_SCH Winter Design Day,    !- Name
    Fractional,               !- Schedule Type Limits Name
    No,                       !- Interpolate to Timestep
    07:00,                    !- Time 1
    0,                        !- Value Until Time 1
    08:00,                    !- Time 2
    0.27,                     !- Value Until Time 2
    09:00,                    !- Time 3
    0.55,                     !- Value Until Time 3
    11:00,                    !- Time 4
    0.64,                     !- Value Until Time 4
    12:00,                    !- Time 5
    0.82,                     !- Value Until Time 5
    13:00,                    !- Time 6
    1,                        !- Value Until Time 6
    14:00,                    !- Time 7
    0.91,                     !- Value Until Time 7
    16:00,                    !- Time 8
    0.55,                     !- Value Until Time 8
    17:00,                    !- Time 9
    0.73,                     !- Value Until Time 9
    19:00,                    !- Time 10
    0.37,                     !- Value Until Time 10
    20:00,                    !- Time 11
    0.18,                     !- Value Until Time 11
    21:00,                    !- Time 12
    0.27,                     !- Value Until Time 12
    22:00,                    !- Time 13
    0.09,                     !- Value Until Time 13
    24:00,                    !- Time 14
    0;                        !- Value Until Time 14

Schedule:Day:Interval,
    OfficeSmall BLDG_SWH_SCH WntrDsn|SmrDsn|Wkdy Day,    !- Name
    Fractional,               !- Schedule Type Limits Name
    No,                       !- Interpolate to Timestep
    07:00,                    !- Time 1
    0,                        !- Value Until Time 1
    08:00,                    !- Time 2
    0.27,                     !- Value Until Time 2
    09:00,                    !- Time 3
    0.55,                     !- Value Until Time 3
    11:00,                    !- Time 4
    0.64,                     !- Value Until Time 4
    12:00,                    !- Time 5
    0.82,                     !- Value Until Time 5
    13:00,                    !- Time 6
    1,                        !- Value Until Time 6
    14:00,                    !- Time 7
    0.91,                     !- Value Until Time 7
    16:00,                    !- Time 8
    0.55,                     !- Value Until Time 8
    17:00,                    !- Time 9
    0.73,                     !- Value Until Time 9
    19:00,                    !- Time 10
    0.37,                     !- Value Until Time 10
    20:00,                    !- Time 11
    0.18,                     !- Value Until Time 11
    21:00,                    !- Time 12
    0.27,                     !- Value Until Time 12
    22:00,                    !- Time 13
    0.09,                     !- Value Until Time 13
    24:00,                    !- Time 14
    0;                        !- Value Until Time 14

Schedule:Day:Interval,
    OfficeSmall CLGSETP_SCH_NO_OPTIMUM Default,    !- Name
    Temperature,              !- Schedule Type Limits Name
    No,                       !- Interpolate to Timestep
    24:00,                    !- Time 1
    29.44;                    !- Value Until Time 1

Schedule:Day:Interval,
    OfficeSmall CLGSETP_SCH_NO_OPTIMUM Default 1,    !- Name
    Temperature,              !- Schedule Type Limits Name
    No,                       !- Interpolate to Timestep
    12:00,                    !- Time 1
    29.44,                    !- Value Until Time 1
    13:00,                    !- Time 2