
Version,
  23.2;                                   !- Version Identifier

Timestep,
  6;                                      !- Number of Timesteps per Hour

LifeCycleCost:Parameters,
  Life Cycle Cost Parameters,             !- Name
  EndOfYear,                              !- Discounting Convention
  ConstantDollar,                         !- Inflation Approach
  0.03,                                   !- Real Discount Rate
  ,                                       !- Nominal Discount Rate
  ,                                       !- Inflation
  ,                                       !- Base Date Month
  2011,                                   !- Base Date Year
  ,                                       !- Service Date Month
  2011,                                   !- Service Date Year
  25,                                     !- Length of Study Period in Years
  ,                                       !- Tax rate
  None;                                   !- Depreciation Method

LifeCycleCost:UsePriceEscalation,
  U.S. Avg  Commercial-Electricity,       !- Name
  Electricity,                            !- Resource
  2011,                                   !- Escalation Start Year
  January,                                !- Escalation Start Month
  0.9838,                                 !- Year Escalation 1
  0.9730,                                 !- Year Escalation 2
  0.9632,                                 !- Year Escalation 3
  0.9611,                                 !- Year Escalation 4
  0.9571,                                 !- Year Escalation 5
  0.9553,                                 !- Year Escalation 6
  0.9539,                                 !- Year Escalation 7
  0.9521,                                 !- Year Escalation 8
  0.9546,                                 !- Year Escalation 9
  0.9550,                                 !- Year Escalation 10
  0.9553,                                 !- Year Escalation 11
  0.9564,                                 !- Year Escalation 12
  0.9575,                                 !- Year Escalation 13
  0.9596,                                 !- Year Escalation 14
  0.9618,                                 !- Year Escalation 15
  0.9614,                                 !- Year Escalation 16
  0.9618,                                 !- Year Escalation 17
  0.9618,                                 !- Year Escalation 18
  0.9593,                                 !- Year Escalation 19
  0.9589,                                 !- Year Escalation 20
  0.9607,                                 !- Year Escalation 21
  0.9625,                                 !- Year Escalation 22
  0.9650,                                 !- Year Escalation 23
  0.9708,                                 !- Year Escalation 24
  0.9751,                                 !- Year Escalation 25
  0.9762,                                 !- Year Escalation 26
  0.9766,                                 !- Year Escalation 27
  0.9766,                                 !- Year Escalation 28
  0.9769,                                 !- Year Escalation 29
  0.9773;                                 !- Year Escalation 30

LifeCycleCost:UsePriceEscalation,
  U.S. Avg  Commercial-Distillate Oil,    !- Name
  FuelOilNo1,                             !- Resource
  2011,                                   !- Escalation Start Year
  January,                                !- Escalation Start Month
  0.9714,                                 !- Year Escalation 1
  0.9730,                                 !- Year Escalation 2
  0.9942,                                 !- Year Escalation 3
  1.0164,                                 !- Year Escalation 4
  1.0541,                                 !- Year Escalation 5
  1.0928,                                 !- Year Escalation 6
  1.1267,                                 !- Year Escalation 7
  1.1580,                                 !- Year Escalation 8
  1.1792,                                 !- Year Escalation 9
  1.1967,                                 !- Year Escalation 10
  1.2200,                                 !- Year Escalation 11
  1.2333,                                 !- Year Escalation 12
  1.2566,                                 !- Year Escalation 13
  1.2709,                                 !- Year Escalation 14
  1.2826,                                 !- Year Escalation 15
  1.2985,                                 !- Year Escalation 16
  1.3102,                                 !- Year Escalation 17
  1.3250,                                 !- Year Escalation 18
  1.3261,                                 !- Year Escalation 19
  1.3282,                                 !- Year Escalation 20
  1.3324,                                 !- Year Escalation 21
  1.3356,                                 !- Year Escalation 22
  1.3431,                                 !- Year Escalation 23
  1.3510,                                 !- Year Escalation 24
  1.3568,                                 !- Year Escalation 25
  1.3606,                                 !- Year Escalation 26
  1.3637,                                 !- Year Escalation 27
  1.3674,                                 !- Year Escalation 28
  1.3706,                                 !- Year Escalation 29
  1.3743;                                 !- Year Escalation 30

LifeCycleCost:UsePriceEscalation,
  U.S. Avg  Commercial-Residual Oil,      !- Name
  FuelOilNo2,                             !- Resource
  2011,                                   !- Escalation Start Year
  January,                                !- Escalation Start Month
  0.8469,                                 !- Year Escalation 1
  0.8257,                                 !- Year Escalation 2
  0.8681,                                 !- Year Escalation 3
  0.8988,                                 !- Year Escalation 4
  0.9289,                                 !- Year Escalation 5
  0.9604,                                 !- Year Escalation 6
  0.9897,                                 !- Year Escalation 7
  1.0075,                                 !- Year Escalation 8
  1.0314,                                 !- Year Escalation 9
  1.0554,                                 !- Year Escalation 10
  1.0861,                                 !- Year Escalation 11
  1.1278,                                 !- Year Escalation 12
  1.1497,                                 !- Year Escalation 13
  1.1620,                                 !- Year Escalation 14
  1.1743,                                 !- Year Escalation 15
  1.1852,                                 !- Year Escalation 16
  1.1948,                                 !- Year Escalation 17
  1.2037,                                 !- Year Escalation 18
  1.2071,                                 !- Year Escalation 19
  1.2119,                                 !- Year Escalation 20
  1.2139,                                 !- Year Escalation 21
  1.2194,                                 !- Year Escalation 22
  1.2276,                                 !- Year Escalation 23
  1.2365,                                 !- Year Escalation 24
  1.2420,                                 !- Year Escalation 25
  1.2461,                                 !- Year Escalation 26
  1.2509,                                 !- Year Escalation 27
  1.2550,                                 !- Year Escalation 28
  1.2591,                                 !- Year Escalation 29
  1.2638;                                 !- Year Escalation 30

LifeCycleCost:UsePriceEscalation,
  U.S. Avg  Commercial-Natural gas,       !- Name
  NaturalGas,                             !- Resource
  2011,                                   !- Escalation Start Year
  January,                                !- Escalation Start Month
  0.9823,                                 !- Year Escalation 1
  0.9557,                                 !- Year Escalation 2
  0.9279,                                 !- Year Escalation 3
  0.9257,                                 !- Year Escalation 4
  0.9346,                                 !- Year Escalation 5
  0.9412,                                 !- Year Escalation 6
  0.9512,                                 !- Year Escalation 7
  0.9645,                                 !- Year Escalation 8
  0.9856,                                 !- Year Escalation 9
  1.0067,                                 !- Year Escalation 10
  1.0222,                                 !- Year Escalation 11
  1.0410,                                 !- Year Escalation 12
  1.0610,                                 !- Year Escalation 13
  1.0787,                                 !- Year Escalation 14
  1.0942,                                 !- Year Escalation 15
  1.1098,                                 !- Year Escalation 16
  1.1220,                                 !- Year Escalation 17
  1.1308,                                 !- Year Escalation 18
  1.1386,                                 !- Year Escalation 19
  1.1486,                                 !- Year Escalation 20
  1.1619,                                 !- Year Escalation 21
  1.1763,                                 !- Year Escalation 22
  1.1918,                                 !- Year Escalation 23
  1.2118,                                 !- Year Escalation 24
  1.2284,                                 !- Year Escalation 25
  1.2439,                                 !- Year Escalation 26
  1.2605,                                 !- Year Escalation 27
  1.2772,                                 !- Year Escalation 28
  1.2938,                                 !- Year Escalation 29
  1.3115;                                 !- Year Escalation 30

LifeCycleCost:UsePriceEscalation,
  U.S. Avg  Commercial-Coal,              !- Name
  Coal,                                   !- Resource
  2011,                                   !- Escalation Start Year
  January,                                !- Escalation Start Month
  0.9970,                                 !- Year Escalation 1
  1.0089,                                 !- Year Escalation 2
  1.0089,                                 !- Year Escalation 3
  0.9941,                                 !- Year Escalation 4
  0.9941,                                 !- Year Escalation 5
  1.0000,                                 !- Year Escalation 6
  1.0030,                                 !- Year Escalation 7
  1.0059,                                 !- Year Escalation 8
  1.0089,                                 !- Year Escalation 9
  1.0119,                                 !- Year Escalation 10
  1.0148,                                 !- Year Escalation 11
  1.0178,                                 !- Year Escalation 12
  1.0208,                                 !- Year Escalation 13
  1.0267,                                 !- Year Escalation 14
  1.0297,                                 !- Year Escalation 15
  1.0356,                                 !- Year Escalation 16
  1.0415,                                 !- Year Escalation 17
  1.0534,                                 !- Year Escalation 18
  1.0564,                                 !- Year Escalation 19
  1.0593,                                 !- Year Escalation 20
  1.0653,                                 !- Year Escalation 21
  1.0712,                                 !- Year Escalation 22
  1.0742,                                 !- Year Escalation 23
  1.0801,                                 !- Year Escalation 24
  1.0831,                                 !- Year Escalation 25
  1.0831,                                 !- Year Escalation 26
  1.0861,                                 !- Year Escalation 27
  1.0890,                                 !- Year Escalation 28
  1.0920,                                 !- Year Escalation 29
  1.0950;                                 !- Year Escalation 30

Building,
  -SmallOffice-ASHRAE 169-2013-1A created: 2024-03-22 11:05:47 +0100, !- Name
  0,                                      !- North Axis {deg}
  City,                                   !- Terrain
  0.04,                                   !- Loads Convergence Tolerance Value {W}
  0.2,                                    !- Temperature Convergence Tolerance Value {deltaC}
  FullInteriorAndExterior,                !- Solar Distribution
  25,                                     !- Maximum Number of Warmup Days
  6;                                      !- Minimum Number of Warmup Days

Zone,
  Attic ZN,                               !- Name
  0,                                      !- Direction of Relative North {deg}
  0,                                      !- X Origin {m}
  0,                                      !- Y Origin {m}
  0,                                      !- Z Origin {m}
  ,                                       !- Type
  1,                                      !- Multiplier
  ,                                       !- Ceiling Height {m}
  ,                                       !- Volume {m3}
  ,                                       !- Floor Area {m2}
  ,                                       !- Zone Inside Convection Algorithm
  ,                                       !- Zone Outside Convection Algorithm
  No;                                     !- Part of Total Floor Area

Space,
  Attic,                                  !- Name
  Attic ZN,                               !- Zone Name
  ,                                       !- Ceiling Height {m}
  ,                                       !- Volume {m3}
  ,                                       !- Floor Area {m2}
  Office Attic;                           !- Space Type

SpaceList,
  Office Attic,                           !- Name
  Attic;                                  !- Space Name 1

BuildingSurface:Detailed,
  Attic_floor_core,                       !- Name
  Floor,                                  !- Surface Type
  Typical Wood Joist Attic Floor R-37.04 1, !- Construction Name
  Attic ZN,                               !- Zone Name
  Attic,                                  !- Space Name
  Surface,                                !- Outside Boundary Condition
  Core_ZN_ceiling,                        !- Outside Boundary Condition Object
  NoSun,                                  !- Sun Exposure
  NoWind,                                 !- Wind Exposure
  ,                                       !- View Factor to Ground
  ,                                       !- Number of Vertices
  22.69, 13.46, 3.05,                     !- X,Y,Z Vertex 1 {m}
  22.69, 5, 3.05,                         !- X,Y,Z Vertex 2 {m}
  5, 5, 3.05,                             !- X,Y,Z Vertex 3 {m}
  5, 13.46, 3.05;                         !- X,Y,Z Vertex 4 {m}

BuildingSurface:Detailed,
  Attic_floor_perimeter_east,             !- Name
  Floor,                                  !- Surface Type
  Typical Wood Joist Attic Floor R-37.04 1, !- Construction Name
  Attic ZN,                               !- Zone Name
  Attic,                                  !- Space Name
  Surface,                                !- Outside Boundary Condition
  Perimeter_ZN_2_ceiling,                 !- Outside Boundary Condition Object
  NoSun,                                  !- Sun Exposure
  NoWind,                                 !- Wind Exposure
  ,                                       !- View Factor to Ground
  ,                                       !- Number of Vertices
  27.69, 18.46, 3.05,                     !- X,Y,Z Vertex 1 {m}
  27.69, 0, 3.05,                         !- X,Y,Z Vertex 2 {m}
  22.69, 5, 3.05,                         !- X,Y,Z Vertex 3 {m}
  22.69, 13.46, 3.05;                     !- X,Y,Z Vertex 4 {m}

BuildingSurface:Detailed,
  Attic_floor_perimeter_north,            !- Name
  Floor,                                  !- Surface Type
  Typical Wood Joist Attic Floor R-37.04 1, !- Construction Name
  Attic ZN,                               !- Zone Name
  Attic,                                  !- Space Name
  Surface,                                !- Outside Boundary Condition
  Perimeter_ZN_3_ceiling,                 !- Outside Boundary Condition Object
  NoSun,                                  !- Sun Exposure
  NoWind,                                 !- Wind Exposure
  ,                                       !- View Factor to Ground
  ,                                       !- Number of Vertices
  27.69, 18.46, 3.05,                     !- X,Y,Z Vertex 1 {m}
  22.69, 13.46, 3.05,                     !- X,Y,Z Vertex 2 {m}
  5, 13.46, 3.05,                         !- X,Y,Z Vertex 3 {m}
  0, 18.46, 3.05;                         !- X,Y,Z Vertex 4 {m}

BuildingSurface:Detailed,
  Attic_floor_perimeter_south,            !- Name
  Floor,                                  !- Surface Type
  Typical Wood Joist Attic Floor R-37.04 1, !- Construction Name
  Attic ZN,                               !- Zone Name
  Attic,                                  !- Space Name
  Surface,                                !- Outside Boundary Condition
  Perimeter_ZN_1_ceiling,                 !- Outside Boundary Condition Object
  NoSun,                                  !- Sun Exposure
  NoWind,                                 !- Wind Exposure
  ,                                       !- View Factor to Ground
  ,                                       !- Number of Vertices
  22.69, 5, 3.05,                         !- X,Y,Z Vertex 1 {m}
  27.69, 0, 3.05,                         !- X,Y,Z Vertex 2 {m}
  0, 0, 3.05,                             !- X,Y,Z Vertex 3 {m}
  5, 5, 3.05;                             !- X,Y,Z Vertex 4 {m}

BuildingSurface:Detailed,
  Attic_floor_perimeter_west,             !- Name
  Floor,                                  !- Surface Type
  Typical Wood Joist Attic Floor R-37.04 1, !- Construction Name
  Attic ZN,                               !- Zone Name
  Attic,                                  !- Space Name
  Surface,                                !- Outside Boundary Condition
  Perimeter_ZN_4_ceiling,                 !- Outside Boundary Condition Object
  NoSun,                                  !- Sun Exposure
  NoWind,                                 !- Wind Exposure
  ,                                       !- View Factor to Ground
  ,                                       !- Number of Vertices
  0, 18.46, 3.05,                         !- X,Y,Z Vertex 1 {m}
  5, 13.46, 3.05,                         !- X,Y,Z Vertex 2 {m}
  5, 5, 3.05,                             !- X,Y,Z Vertex 3 {m}
  0, 0, 3.05;                             !- X,Y,Z Vertex 4 {m}

BuildingSurface:Detailed,
  Attic_roof_east,                        !- Name
  Roof,                                   !- Surface Type
  Typical Uninsulated Wood Joist Attic Roof, !- Construction Name
  Attic ZN,                               !- Zone Name
  Attic,                                  !- Space Name
  Outdoors,                               !- Outside Boundary Condition
  ,                                       !- Outside Boundary Condition Object
  SunExposed,                             !- Sun Exposure
  WindExposed,                            !- Wind Exposure
  ,                                       !- View Factor to Ground
  ,                                       !- Number of Vertices
  18.46, 9.23, 6.33,                      !- X,Y,Z Vertex 1 {m}
  28.29, -0.6, 3.05,                      !- X,Y,Z Vertex 2 {m}
  28.29, 19.06, 3.05;                     !- X,Y,Z Vertex 3 {m}

BuildingSurface:Detailed,
  Attic_roof_north,                       !- Name
  Roof,                                   !- Surface Type
  Typical Uninsulated Wood Joist Attic Roof, !- Construction Name
  Attic ZN,                               !- Zone Name
  Attic,                                  !- Space Name
  Outdoors,                               !- Outside Boundary Condition
  ,                                       !- Outside Boundary Condition Object
  SunExposed,                             !- Sun Exposure
  WindExposed,                            !- Wind Exposure
  ,                                       !- View Factor to Ground
  ,                                       !- Number of Vertices
  18.46, 9.23, 6.33,                      !- X,Y,Z Vertex 1 {m}
  28.29, 19.06, 3.05,                     !- X,Y,Z Vertex 2 {m}
  -0.6, 19.06, 3.05,                      !- X,Y,Z Vertex 3 {m}
  9.23, 9.23, 6.33;                       !- X,Y,Z Vertex 4 {m}

BuildingSurface:Detailed,
  Attic_roof_south,                       !- Name
  Roof,                                   !- Surface Type
  Typical Uninsulated Wood Joist Attic Roof, !- Construction Name
  Attic ZN,                               !- Zone Name
  Attic,                                  !- Space Name
  Outdoors,                               !- Outside Boundary Condition
  ,                                       !- Outside Boundary Condition Object
  SunExposed,                             !- Sun Exposure
  WindExposed,                            !- Wind Exposure
  ,                                       !- View Factor to Ground
  ,                                       !- Number of Vertices
  9.23, 9.23, 6.33,                       !- X,Y,Z Vertex 1 {m}
  -0.6, -0.6, 3.05,                       !- X,Y,Z Vertex 2 {m}
  28.29, -0.6, 3.05,                      !- X,Y,Z Vertex 3 {m}
  18.46, 9.23, 6.33;                      !- X,Y,Z Vertex 4 {m}

BuildingSurface:Detailed,
  Attic_roof_west,                        !- Name
  Roof,                                   !- Surface Type
  Typical Uninsulated Wood Joist Attic Roof, !- Construction Name
  Attic ZN,                               !- Zone Name
  Attic,                                  !- Space Name
  Outdoors,                               !- Outside Boundary Condition
  ,                                       !- Outside Boundary Condition Object
  SunExposed,                             !- Sun Exposure
  WindExposed,                            !- Wind Exposure
  ,                                       !- View Factor to Ground
  ,                                       !- Number of Vertices
  9.23, 9.23, 6.33,                       !- X,Y,Z Vertex 1 {m}
  -0.6, 19.06, 3.05,                      !- X,Y,Z Vertex 2 {m}
  -0.6, -0.6, 3.05;                       !- X,Y,Z Vertex 3 {m}

BuildingSurface:Detailed,
  Attic_soffit_east,                      !- Name
  Floor,                                  !- Surface Type
  Typical Attic Soffit,                   !- Construction Name
  Attic ZN,                               !- Zone Name
  Attic,                                  !- Space Name
  Outdoors,                               !- Outside Boundary Condition
  ,                                       !- Outside Boundary Condition Object
  SunExposed,                             !- Sun Exposure
  WindExposed,                            !- Wind Exposure
  ,                                       !- View Factor to Ground
  ,                                       !- Number of Vertices
  28.29, 19.06, 3.05,                     !- X,Y,Z Vertex 1 {m}
  28.29, -0.6, 3.05,                      !- X,Y,Z Vertex 2 {m}
  27.69, 0, 3.05,                         !- X,Y,Z Vertex 3 {m}
  27.69, 18.46, 3.05;                     !- X,Y,Z Vertex 4 {m}

BuildingSurface:Detailed,
  Attic_soffit_north,                     !- Name
  Floor,                                  !- Surface Type
  Typical Attic Soffit,                   !- Construction Name
  Attic ZN,                               !- Zone Name
  Attic,                                  !- Space Name
  Outdoors,                               !- Outside Boundary Condition
  ,                                       !- Outside Boundary Condition Object
  SunExposed,                             !- Sun Exposure
  WindExposed,                            !- Wind Exposure
  ,                                       !- View Factor to Ground
  ,                                       !- Number of Vertices
  28.29, 19.06, 3.05,                     !- X,Y,Z Vertex 1 {m}
  27.69, 18.46, 3.05,                     !- X,Y,Z Vertex 2 {m}
  0, 18.46, 3.05,                         !- X,Y,Z Vertex 3 {m}
  -0.6, 19.06, 3.05;                      !- X,Y,Z Vertex 4 {m}

BuildingSurface:Detailed,
  Attic_soffit_south,                     !- Name
  Floor,                                  !- Surface Type
  Typical Attic Soffit,                   !- Construction Name
  Attic ZN,                               !- Zone Name
  Attic,                                  !- Space Name
  Outdoors,                               !- Outside Boundary Condition
  ,                                       !- Outside Boundary Condition Object
  SunExposed,                             !- Sun Exposure
  WindExposed,                            !- Wind Exposure
  ,                                       !- View Factor to Ground
  ,                                       !- Number of Vertices
  27.69, 0, 3.05,                         !- X,Y,Z Vertex 1 {m}
  28.29, -0.6, 3.05,                      !- X,Y,Z Vertex 2 {m}
  -0.6, -0.6, 3.05,                       !- X,Y,Z Vertex 3 {m}
  0, 0, 3.05;                             !- X,Y,Z Vertex 4 {m}

BuildingSurface:Detailed,
  Attic_soffit_west,                      !- Name
  Floor,                                  !- Surface Type
  Typical Attic Soffit,                   !- Construction Name
  Attic ZN,                               !- Zone Name
  Attic,                                  !- Space Name
  Outdoors,                               !- Outside Boundary Condition
  ,                                       !- Outside Boundary Condition Object
  SunExposed,                             !- Sun Exposure
  WindExposed,                            !- Wind Exposure
  ,                                       !- View Factor to Ground
  ,                                       !- Number of Vertices
  -0.6, 19.06, 3.05,                      !- X,Y,Z Vertex 1 {m}
  0, 18.46, 3.05,                         !- X,Y,Z Vertex 2 {m}
  0, 0, 3.05,                             !- X,Y,Z Vertex 3 {m}
  -0.6, -0.6, 3.05;                       !- X,Y,Z Vertex 4 {m}

InternalMass,
  Attic Mass,                             !- Name
  InteriorFurnishings,                    !- Construction Name
  Attic ZN,                               !- Zone or ZoneList Name
  Attic,                                  !- Space or SpaceList Name
  1135.9548;                              !- Surface Area {m2}

ZoneInfiltration:DesignFlowRate,
  attic Infiltration,                     !- Name
  Attic,                                  !- Zone or ZoneList or Space or SpaceList Name
  Always On,                              !- Schedule Name
  Flow/Zone,                              !- Design Flow Rate Calculation Method
  0.2001,                                 !- Design Flow Rate {m3/s}
  ,                                       !- Flow Rate per Floor Area {m3/s-m2}
  ,                                       !- Flow Rate per Exterior Surface Area {m3/s-m2}
  ,                                       !- Air Changes per Hour {1/hr}
  1,                                      !- Constant Term Coefficient
  0,                                      !- Temperature Term Coefficient
  0,                                      !- Velocity Term Coefficient
  0;                                      !- Velocity Squared Term Coefficient

Zone,
  Core_ZN ZN,                             !- Name
  0,                                      !- Direction of Relative North {deg}
  0,                                      !- X Origin {m}
  0,                                      !- Y Origin {m}
  0,                                      !- Z Origin {m}
  ,                                       !- Type
  1,                                      !- Multiplier
  ,                                       !- Ceiling Height {m}
  ,                                       !- Volume {m3}
  ,                                       !- Floor Area {m2}
  ,                                       !- Zone Inside Convection Algorithm
  ,                                       !- Zone Outside Convection Algorithm
  Yes;                                    !- Part of Total Floor Area

Space,
  Core_ZN,                                !- Name
  Core_ZN ZN,                             !- Zone Name
  ,                                       !- Ceiling Height {m}
  ,                                       !- Volume {m3}
  ,                                       !- Floor Area {m2}
  Office WholeBuilding - Sm Office;       !- Space Type

SpaceList,
  Office WholeBuilding - Sm Office,       !- Name
  Perimeter_ZN_1,                         !- Space Name 1
  Perimeter_ZN_2,                         !- Space Name 2
  Perimeter_ZN_3,                         !- Space Name 3
  Perimeter_ZN_4,                         !- Space Name 4
  Core_ZN;                                !- Space Name 5

People,
  Office WholeBuilding - Sm Office People, !- Name
  Office WholeBuilding - Sm Office,       !- Zone or ZoneList or Space or SpaceList Name
  OfficeSmall BLDG_OCC_SCH,               !- Number of People Schedule Name
  People/Area,                            !- Number of People Calculation Method
  ,                                       !- Number of People
  0.0602778983335744,                     !- People per Floor Area {person/m2}
  ,                                       !- Floor Area per Person {m2/person}
  0.3,                                    !- Fraction Radiant
  ,                                       !- Sensible Heat Fraction
  OfficeSmall ACTIVITY_SCH,               !- Activity Level Schedule Name
  ,                                       !- Carbon Dioxide Generation Rate {m3/s-W}
  ,                                       !- Enable ASHRAE 55 Comfort Warnings
  ,                                       !- Mean Radiant Temperature Calculation Type