!- Windows Line endings 

Version,
    22.1;                     !- Version Identifier

SimulationControl,
    Yes,                      !- Do Zone Sizing Calculation
    Yes,                      !- Do System Sizing Calculation
    No,                       !- Do Plant Sizing Calculation
    No,                       !- Run Simulation for Sizing Periods
    Yes,                      !- Run Simulation for Weather File Run Periods
    No,                       !- Do HVAC Sizing Simulation for Sizing Periods
    ;                         !- Maximum Number of HVAC Sizing Simulation Passes

Building,
    Building 1,               !- Name
    ,                         !- North Axis
    ,                         !- Terrain
    ,                         !- Loads Convergence Tolerance Value
    ,                         !- Temperature Convergence Tolerance Value
    ,                         !- Solar Distribution
    ,                         !- Maximum Number of Warmup Days
    ;                         !- Minimum Number of Warmup Days

ShadowCalculation,
    PolygonClipping,          !- Shading Calculation Method
    Periodic,                 !- Shading Calculation Update Frequency Method
    20,                       !- Shading Calculation Update Frequency
    15000,                    !- Maximum Figures in Shadow Overlap Calculations
    SutherlandHodgman,        !- Polygon Clipping Algorithm
    512,                      !- Pixel Counting Resolution
    SimpleSkyDiffuseModeling,    !- Sky Diffuse Modeling Algorithm
    No,                       !- Output External Shading Calculation Results
    No,                       !- Disable SelfShading Within Shading Zone Groups
    No;                       !- Disable SelfShading From Shading Zone Groups to Other Zones

SurfaceConvectionAlgorithm:Inside,
    TARP;                     !- Algorithm

SurfaceConvectionAlgorithm:Outside,
    DOE-2;                    !- Algorithm

HeatBalanceAlgorithm,
    ConductionTransferFunction,    !- Algorithm
    200;                      !- Surface Temperature Upper Limit

ZoneAirHeatBalanceAlgorithm,
    ThirdOrderBackwardDifference;    !- Algorithm

Timestep,
    6;                        !- Number of Timesteps per Hour

ConvergenceLimits,
    1;                        !- Minimum System Timestep

Site:Location,
    Site 1,                   !- Name
    41.77,                    !- Latitude
    -87.75,                   !- Longitude
    -6,                       !- Time Zone
    190;                      !- Elevation

SizingPeriod:DesignDay,
    Sizing Period Design Day 1,    !- Name
    1,                        !- Month
    21,                       !- Day of Month
    WinterDesignDay,          !- Day Type
    -20.6,                    !- Maximum DryBulb Temperature
    0,                        !- Daily DryBulb Temperature Range
    DefaultMultipliers,       !- DryBulb Temperature Range Modifier Type
    ,                         !- DryBulb Temperature Range Modifier Day Schedule Name
    WetBulb,                  !- Humidity Condition Type
    -20.6,                    !- Wetbulb or DewPoint at Maximum DryBulb
    ,                         !- Humidity Condition Day Schedule Name
    ,                         !- Humidity Ratio at Maximum DryBulb
    ,                         !- Enthalpy at Maximum DryBulb
    ,                         !- Daily WetBulb Temperature Range
    99063,                    !- Barometric Pressure
    4.9,                      !- Wind Speed
    270,                      !- Wind Direction
    No,                       !- Rain Indicator
    No,                       !- Snow Indicator
    No,                       !- Daylight Saving Time Indicator
    ASHRAEClearSky,           !- Solar Model Indicator
    ,                         !- Beam Solar Day Schedule Name
    ,                         !- Diffuse Solar Day Schedule Name
    ,                         !- ASHRAE Clear Sky Optical Depth for Beam Irradiance taub
    ,                         !- ASHRAE Clear Sky Optical Depth for Diffuse Irradiance taud
    0,                        !- Sky Clearness
    ,                         !- Maximum Number Warmup Days
    FullResetAtBeginEnvironment;    !- Begin Environment Reset Mode

SizingPeriod:DesignDay,
    Sizing Period Design Day 2,    !- Name
    7,                        !- Month
    21,                       !- Day of Month
    SummerDesignDay,          !- Day Type
    33.2,                     !- Maximum DryBulb Temperature
    10.7,                     !- Daily DryBulb Temperature Range
    DefaultMultipliers,       !- DryBulb Temperature Range Modifier Type
    ,                         !- DryBulb Temperature Range Modifier Day Schedule Name
    WetBulb,                  !- Humidity Condition Type
    23.8,                     !- Wetbulb or DewPoint at Maximum DryBulb
    ,                         !- Humidity Condition Day Schedule Name
    ,                         !- Humidity Ratio at Maximum DryBulb
    ,                         !- Enthalpy at Maximum DryBulb
    ,                         !- Daily WetBulb Temperature Range
    99063,                    !- Barometric Pressure
    5.3,                      !- Wind Speed
    230,                      !- Wind Direction
    No,                       !- Rain Indicator
    No,                       !- Snow Indicator
    No,                       !- Daylight Saving Time Indicator
    ASHRAEClearSky,           !- Solar Model Indicator
    ,                         !- Beam Solar Day Schedule Name
    ,                         !- Diffuse Solar Day Schedule Name
    ,                         !- ASHRAE Clear Sky Optical Depth for Beam Irradiance taub
    ,                         !- ASHRAE Clear Sky Optical Depth for Diffuse Irradiance taud
    1,                        !- Sky Clearness
    ,                         !- Maximum Number Warmup Days
    FullResetAtBeginEnvironment;    !- Begin Environment Reset Mode

RunPeriod,
    Run Period 1,             !- Name
    1,                        !- Begin Month
    1,                        !- Begin Day of Month
    2009,                     !- Begin Year
    12,                       !- End Month
    31,                       !- End Day of Month
    2009,                     !- End Year
    Thursday,                 !- Day of Week for Start Day
    No,                       !- Use Weather File Holidays and Special Days
    No,                       !- Use Weather File Daylight Saving Period
    No,                       !- Apply Weekend Holiday Rule
    Yes,                      !- Use Weather File Rain Indicators
    Yes;                      !- Use Weather File Snow Indicators

Site:GroundTemperature:BuildingSurface,
    19.527,                   !- January Ground Temperature
    19.502,                   !- February Ground Temperature
    19.536,                   !- March Ground Temperature
    19.598,                   !- April Ground Temperature
    20.002,                   !- May Ground Temperature
    21.64,                    !- June Ground Temperature
    22.225,                   !- July Ground Temperature
    22.375,                   !- August Ground Temperature
    21.449,                   !- September Ground Temperature
    20.121,                   !- October Ground Temperature
    19.802,                   !- November Ground Temperature
    19.633;                   !- December Ground Temperature

Site:GroundTemperature:Deep,
    19.527,                   !- January Deep Ground Temperature
    19.502,                   !- February Deep Ground Temperature
    19.536,                   !- March Deep Ground Temperature
    19.598,                   !- April Deep Ground Temperature
    20.002,                   !- May Deep Ground Temperature
    21.64,                    !- June Deep Ground Temperature
    22.225,                   !- July Deep Ground Temperature
    22.375,                   !- August Deep Ground Temperature
    21.449,                   !- September Deep Ground Temperature
    20.121,                   !- October Deep Ground Temperature
    19.802,                   !- November Deep Ground Temperature
    19.633;                   !- December Deep Ground Temperature

Site:WaterMainsTemperature,
    Correlation,              !- Calculation Method
    ,                         !- Temperature Schedule Name
    9.69,                     !- Annual Average Outdoor Air Temperature
    28.1;                     !- Maximum Difference In Monthly Average Outdoor Air Temperatures

ScheduleTypeLimits,
    Fractional,               !- Name
    0,                        !- Lower Limit Value
    1,                        !- Upper Limit Value
    Continuous;               !- Numeric Type

ScheduleTypeLimits,
    Thermal Zone 1 Thermostat Schedule Type Limits,    !- Name
    0,                        !- Lower Limit Value
    4,                        !- Upper Limit Value
    DISCRETE;                 !- Numeric Type

ScheduleTypeLimits,
    Temperature,              !- Name
    -60,                      !- Lower Limit Value
    200,                      !- Upper Limit Value
    CONTINUOUS,               !- Numeric Type
    temperature;              !- Unit Type

ScheduleTypeLimits,
    ActivityLevel,            !- Name
    0,                        !- Lower Limit Value
    ,                         !- Upper Limit Value
    Continuous,               !- Numeric Type
    activitylevel;            !- Unit Type

ScheduleTypeLimits,
    OnOff,                    !- Name
    0,                        !- Lower Limit Value
    1,                        !- Upper Limit Value
    Discrete,                 !- Numeric Type
    availability;             !- Unit Type

ScheduleTypeLimits,
    OnOff 1,                  !- Name
    0,                        !- Lower Limit Value
    1,                        !- Upper Limit Value
    Discrete,                 !- Numeric Type
    availability;             !- Unit Type

Schedule:Day:Interval,
    Medium Office Electric Equipment Weekdays Schedule,    !- Name
    Fractional,               !- Schedule Type Limits Name
    No,                       !- Interpolate to Timestep
    08:00,                    !- Time 1
    0.4,                      !- Value Until Time 1
    12:00,                    !- Time 2
    0.9,                      !- Value Until Time 2
    13:00,                    !- Time 3
    0.8,                      !- Value Until Time 3
    17:00,                    !- Time 4
    0.9,                      !- Value Until Time 4
    18:00,                    !- Time 5
    0.8,                      !- Value Until Time 5
    20:00,                    !- Time 6
    0.6,                      !- Value Until Time 6
    22:00,                    !- Time 7
    0.5,                      !- Value Until Time 7
    24:00,                    !- Time 8
    0.4;                      !- Value Until Time 8

Schedule:Day:Interval,
    Medium Office Electric Equipment Saturday Schedule,    !- Name
    Fractional,               !- Schedule Type Limits Name
    No,                       !- Interpolate to Timestep
    06:00,                    !- Time 1
    0.3,                      !- Value Until Time 1
    08:00,                    !- Time 2
    0.4,                      !- Value Until Time 2
    14:00,                    !- Time 3
    0.5,                      !- Value Until Time 3
    17:00,                    !- Time 4
    0.35,                     !- Value Until Time 4
    24:00,                    !- Time 5
    0.3;                      !- Value Until Time 5

Schedule:Day:Interval,
    Medium Office Electric Equipment All Other Days Schedule,    !- Name
    Fractional,               !- Schedule Type Limits Name
    No,                       !- Interpolate to Timestep
    24:00,                    !- Time 1
    0.3;                      !- Value Until Time 1

Schedule:Day:Interval,
    Medium Office Electric Equipment Summer Design Day Schedule 1,    !- Name
    Fractional,               !- Schedule Type Limits Name
    No,                       !- Interpolate to Timestep
    06:00,                    !- Time 1
    1,                        !- Value Until Time 1
    24:00,                    !- Time 2
    0;                        !- Value Until Time 2

Schedule:Day:Interval,
    Medium Office Electric Equipment Winter Design Day Schedule 1,    !- Name
    Fractional,               !- Schedule Type Limits Name
    No,                       !- Interpolate to Timestep
    24:00,                    !- Time 1
    0;                        !- Value Until Time 1

Schedule:Day:Interval,
    Medium Office Heating Setpoint Weekdays Schedule,    !- Name
    Temperature,              !- Schedule Type Limits Name
    No,                       !- Interpolate to Timestep
    06:00,                    !- Time 1
    15.6,                     !- Value Until Time 1
    22:00,                    !- Time 2
    21,                       !- Value Until Time 2
    24:00,                    !- Time 3
    15.6;                     !- Value Until Time 3

Schedule:Day:Interval,
    Medium Office Heating Setpoint Saturday Schedule,    !- Name
    Temperature,              !- Schedule Type Limits Name
    No,                       !- Interpolate to Timestep
    06:00,                    !- Time 1
    15.6,                     !- Value Until Time 1
    18:00,                    !- Time 2
    21,                       !- Value Until Time 2
    24:00,                    !- Time 3
    15.6;                     !- Value Until Time 3

Schedule:Day:Interval,
    Medium Office Heating Setpoint All Other Days Schedule,    !- Name
    Temperature,              !- Schedule Type Limits Name
    No,                       !- Interpolate to Timestep
    24:00,                    !- Time 1
    15.6;                     !- Value Until Time 1

Schedule:Day:Interval,
    Medium Office Heating Setpoint Winter Design Day Schedule 1,    !- Name
    Temperature,              !- Schedule Type Limits Name
    No,                       !- Interpolate to Timestep
    24:00,                    !- Time 1
    21;                       !- Value Until Time 1

Schedule:Day:Interval,
    Medium Office Cooling Setpoint Weekdays Schedule,    !- Name
    Temperature,              !- Schedule Type Limits Name
    No,                       !- Interpolate to Timestep
    06:00,                    !- Time 1
    26.7,                     !- Value Until Time 1
    22:00,                    !- Time 2
    24,                       !- Value Until Time 2
    24:00,                    !- Time 3
    26.7;                     !- Value Until Time 3

Schedule:Day:Interval,
    Medium Office Cooling Setpoint Saturday Schedule,    !- Name
    Temperature,              !- Schedule Type Limits Name
    No,                       !- Interpolate to Timestep
    06:00,                    !- Time 1
    26.7,                     !- Value Until Time 1
    18:00,                    !- Time 2
    24,                       !- Value Until Time 2
    24:00,                    !- Time 3
    26.7;                     !- Value Until Time 3

Schedule:Day:Interval,
    Medium Office Cooling Setpoint All Other Days Schedule,    !- Name
    Temperature,              !- Schedule Type Limits Name
    No,                       !- Interpolate to Timestep
    24:00,                    !- Time 1
    26.7;                     !- Value Until Time 1

Schedule:Day:Interval,
    Medium Office Cooling Setpoint Summer Design Day Schedule 1,    !- Name
    Temperature,              !- Schedule Type Limits Name
    No,                       !- Interpolate to Timestep
    06:00,                    !- Time 1
    26.7,                     !- Value Until Time 1
    22:00,                    !- Time 2
    24,                       !- Value Until Time 2
    24:00,                    !- Time 3
    26.7;                     !- Value Until Time 3

Schedule:Day:Interval,
    Medium Office Cooling Setpoint Summer Design Day Schedule,    !- Name
    Temperature,              !- Schedule Type Limits Name
    No,                       !- Interpolate to Timestep
    06:00,                    !- Time 1
    26.7,                     !- Value Until Time 1
    22:00,                    !- Time 2
    24,                       !- Value Until Time 2
    24:00,                    !- Time 3
    26.7;                     !- Value Until Time 3

Schedule:Day:Interval,
    Medium Office Electric Equipment Summer Design Day Schedule,    !- Name
    ,                         !- Schedule Type Limits Name
    No,                       !- Interpolate to Timestep
    06:00,                    !- Time 1
    1,                        !- Value Until Time 1
    24:00,                    !- Time 2
    0;                        !- Value Until Time 2

Schedule:Day:Interval,
    Medium Office Electric Equipment Winter Design Day Schedule,    !- Name
    ,                         !- Schedule Type Limits Name
    No,                       !- Interpolate to Timestep
    24:00,                    !- Time 1
    0;                        !- Value Until Time 1

Schedule:Day:Interval,
    Medium Office Gas Equipment All Other Days Schedule,    !- Name
    Fractional,               !- Schedule Type Limits Name
    No,                       !- Interpolate to Timestep
    24:00,                    !- Time 1
    0.3;                      !- Value Until Time 1

Schedule:Day:Interval,
    Medium Office Gas Equipment Saturday Schedule,    !- Name
    Fractional,               !- Schedule Type Limits Name
    No,                       !- Interpolate to Timestep
    06:00,                    !- Time 1
    0.3,                      !- Value Until Time 1
    08:00,                    !- Time 2
    0.4,                      !- Value Until Time 2
    14:00,                    !- Time 3
    0.5,                      !- Value Until Time 3
    17:00,                    !- Time 4
    0.35,                     !- Value Until Time 4
    24:00,                    !- Time 5
    0.3;                      !- Value Until Time 5

Schedule:Day:Interval,
    Medium Office Gas Equipment Summer Design Day Schedule,    !- Name
    ,                         !- Schedule Type Limits Name
    No,                       !- Interpolate to Timestep
    06:00,                    !- Time 1
    1,                        !- Value Until Time 1
    24:00,                    !- Time 2
    0;                        !- Value Until Time 2

Schedule:Day:Interval,
    Medium Office Gas Equipment Summer Design Day Schedule 1,    !- Name
    Fractional,               !- Schedule Type Limits Name
    No,                       !- Interpolate to Timestep
    06:00,                    !- Time 1
    1,                        !- Value Until Time 1
    24:00,                    !- Time 2
    0;                        !- Value Until Time 2

Schedule:Day:Interval,
    Medium Office Gas Equipment Weekdays Schedule,    !- Name
    Fractional,               !- Schedule Type Limits Name
    No,                       !- Interpolate to Timestep
    08:00,                    !- Time 1
    0.4,                      !- Value Until Time 1
    12:00,                    !- Time 2
    0.9,                      !- Value Until Time 2
    13:00,                    !- Time 3
    0.8,                      !- Value Until Time 3
    17:00,                    !- Time 4
    0.9,                      !- Value Until Time 4
    18:00,                    !- Time 5
    0.8,                      !- Value Until Time 5
    20:00,                    !- Time 6
    0.6,                      !- Value Until Time 6
    22:00,                    !- Time 7
    0.5,                      !- Value Until Time 7
    24:00,                    !- Time 8
    0.4;                      !- Value Until Time 8

Schedule:Day:Interval,
    Medium Office Gas Equipment Winter Design Day Schedule,    !- Name
    ,                         !- Schedule Type Limits Name
    No,                       !- Interpolate to Timestep
    24:00,                    !- Time 1
    0;                        !- Value Until Time 1

Schedule:Day:Interval,
    Medium Office Gas Equipment Winter Design Day Schedule 1,    !- Name
    Fractional,               !- Schedule Type Limits Name
    No,                       !- Interpolate to Timestep
    24:00,                    !- Time 1
    0;                        !- Value Until Time 1

Schedule:Day:Interval,
    Medium Office Heating Setpoint Winter Design Day Schedule,    !- Name
    Temperature,              !- Schedule Type Limits Name
    No,                       !- Interpolate to Timestep
    24:00,                    !- Time 1
    21;                       !- Value Until Time 1

Schedule:Day:Interval,
    Medium Office Hot Water Equipment Default Schedule,    !- Name
    Fractional,               !- Schedule Type Limits Name
    No,                       !- Interpolate to Timestep
    05:00,                    !- Time 1
    0.04,                     !- Value Until Time 1
    06:00,                    !- Time 2
    0.07,                     !- Value Until Time 2
    11:00,                    !- Time 3
    0.04,                     !- Value Until Time 3
    13:00,                    !- Time 4
    0.06,                     !- Value Until Time 4
    14:00,                    !- Time 5
    0.09,                     !- Value Until Time 5
    15:00,                    !- Time 6
    0.06,                     !- Value Until Time 6
    21:00,                    !- Time 7
    0.04,                     !- Value Until Time 7
    22:00,                    !- Time 8
    0.07,                     !- Value Until Time 8
    24:00,                    !- Time 9
    0.04;                     !- Value Until Time 9

Schedule:Day:Interval,
    Medium Office Hot Water Equipment Saturday Schedule,    !- Name
    Fractional,               !- Schedule Type Limits Name
    No,                       !- Interpolate to Timestep
    05:00,                    !- Time 1
    0.05,                     !- Value Until Time 1
    06:00,                    !- Time 2
    0.08,                     !- Value Until Time 2
    07:00,                    !- Time 3
    0.07,                     !- Value Until Time 3
    08:00,                    !- Time 4
    0.11,                     !- Value Until Time 4
    09:00,                    !- Time 5
    0.15,                     !- Value Until Time 5
    10:00,                    !- Time 6
    0.21,                     !- Value Until Time 6
    11:00,                    !- Time 7
    0.19,                     !- Value Until Time 7
    12:00,                    !- Time 8
    0.23,                     !- Value Until Time 8
    13:00,                    !- Time 9
    0.2,                      !- Value Until Time 9
    14:00,                    !- Time 10
    0.19,                     !- Value Until Time 10
    15:00,                    !- Time 11
    0.15,                     !- Value Until Time 11
    16:00,                    !- Time 12
    0.13,                     !- Value Until Time 12
    17:00,                    !- Time 13
    0.14,                     !- Value Until Time 13
    21:00,                    !- Time 14
    0.07,                     !- Value Until Time 14
    22:00,                    !- Time 15
    0.09,                     !- Value Until Time 15
    24:00,                    !- Time 16
    0.05;                     !- Value Until Time 16

Schedule:Day:Interval,
    Medium Office Hot Water Equipment Summer Design Day Schedule,    !- Name
    ,                         !- Schedule Type Limits Name
    No,                       !- Interpolate to Timestep
    05:00,                    !- Time 1
    0.05,                     !- Value Until Time 1
    06:00,                    !- Time 2
    0.08,                     !- Value Until Time 2
    07:00,                    !- Time 3
    0.07,                     !- Value Until Time 3
    08:00,                    !- Time 4
    0.19,                     !- Value Until Time 4
    09:00,                    !- Time 5
    0.35,                     !- Value Until Time 5
    10:00,                    !- Time 6
    0.38,                     !- Value Until Time 6
    11:00,                    !- Time 7
    0.39,                     !- Value Until Time 7
    12:00,                    !- Time 8
    0.47,                     !- Value Until Time 8
    13:00,                    !- Time 9
    0.57,                     !- Value Until Time 9
    14:00,                    !- Time 10
    0.54,                     !- Value Until Time 10
    15:00,                    !- Time 11
    0.34,                     !- Value Until Time 11
    16:00,                    !- Time 12
    0.33,                     !- Value Until Time 12
    17:00,                    !- Time 13
    0.44,                     !- Value Until Time 13
    18:00,                    !- Time 14
    0.26,                     !- Value Until Time 14
    19:00,                    !- Time 15
    0.21,                     !- Value Until Time 15
    20:00,                    !- Time 16
    0.15,                     !- Value Until Time 16
    21:00,                    !- Time 17
    0.17,                     !- Value Until Time 17
    22:00,                    !- Time 18
    0.08,                     !- Value Until Time 18
    24:00,                    !- Time 19
    0.05;                     !- Value Until Time 19

Schedule:Day:Interval,
    Medium Office Hot Water Equipment Summer Design Day Schedule 1,    !- Name
    Fractional,               !- Schedule Type Limits Name
    No,                       !- Interpolate to Timestep
    05:00,                    !- Time 1
    0.05,                     !- Value Until Time 1
    06:00,                    !- Time 2
    0.08,                     !- Value Until Time 2
    07:00,                    !- Time 3
    0.07,                     !- Value Until Time 3
    08:00,                    !- Time 4
    0.19,                     !- Value Until Time 4
    09:00,                    !- Time 5
    0.35,                     !- Value Until Time 5
    10:00,                    !- Time 6
    0.38,                     !- Value Until Time 6
    11:00,                    !- Time 7
    0.39,                     !- Value Until Time 7
    12:00,                    !- Time 8
    0.47,                     !- Value Until Time 8
    13:00,                    !- Time 9
    0.57,                     !- Value Until Time 9
    14:00,                    !- Time 10
    0.54,                     !- Value Until Time 10
    15:00,                    !- Time 11
    0.34,                     !- Value Until Time 11
    16:00,                    !- Time 12
    0.33,                     !- Value Until Time 12
    17:00,                    !- Time 13
    0.44,                     !- Value Until Time 13
    18:00,                    !- Time 14
    0.26,                     !- Value Until Time 14
    19:00,                    !- Time 15
    0.21,                     !- Value Until Time 15
    20:00,                    !- Time 16
    0.15,                     !- Value Until Time 16
    21:00,                    !- Time 17
    0.17,                     !- Value Until Time 17
    22:00,                    !- Time 18
    0.08,                     !- Value Until Time 18
    24:00,                    !- Time 19
    0.05;                     !- Value Until Time 19

Schedule:Day:Interval,
    Medium Office Hot Water Equipment Weekdays Schedule,    !- Name
    Fractional,               !- Schedule Type Limits Name
    No,                       !- Interpolate to Timestep
    05:00,                    !- Time 1
    0.05,                     !- Value Until Time 1
    06:00,                    !- Time 2
    0.08,                     !- Value Until Time 2
    07:00,                    !- Time 3
    0.07,                     !- Value Until Time 3
    08:00,                    !- Time 4
    0.19,                     !- Value Until Time 4
    09:00,                    !- Time 5
    0.35,                     !- Value Until Time 5
    10:00,                    !- Time 6
    0.38,                     !- Value Until Time 6
    11:00,                    !- Time 7
    0.39,                     !- Value Until Time 7
    12:00,                    !- Time 8
    0.47,                     !- Value Until Time 8
    13:00,                    !- Time 9
    0.57,                     !- Value Until Time 9
    14:00,                    !- Time 10
    0.54,                     !- Value Until Time 10
    15:00,                    !- Time 11
    0.34,                     !- Value Until Time 11
    16:00,                    !- Time 12
    0.33,                     !- Value Until Time 12
    17:00,                    !- Time 13
    0.44,                     !- Value Until Time 13
    18:00,                    !- Time 14
    0.26,                     !- Value Until Time 14
    19:00,                    !- Time 15
    0.21,                     !- Value Until Time 15
    20:00,                    !- Time 16
    0.15,                     !- Value Until Time 16
    21:00,                    !- Time 17
    0.17,                     !- Value Until Time 17
    22:00,                    !- Time 18
    0.08,                     !- Value Until Time 18
    24:00,                    !- Time 19
    0.05;                     !- Value Until Time 19

Schedule:Day:Interval,
    Medium Office Hot Water Equipment Winter Design Day Schedule,    !- Name
    ,                         !- Schedule Type Limits Name
    No,                       !- Interpolate to Timestep
    05:00,                    !- Time 1
    0.05,                     !- Value Until Time 1
    06:00,                    !- Time 2
    0.08,                     !- Value Until Time 2
    07:00,                    !- Time 3
    0.07,                     !- Value Until Time 3
    08:00,                    !- Time 4