  Version,23.1;

  Timestep,6;

  LifeCycleCost:Parameters,
    Life Cycle Cost Parameters,  !- Name
    EndOfYear,               !- Discounting Convention
    ConstantDollar,          !- Inflation Approach
    0.03,                    !- Real Discount Rate
    ,                        !- Nominal Discount Rate
    ,                        !- Inflation
    ,                        !- Base Date Month
    2011,                    !- Base Date Year
    ,                        !- Service Date Month
    2011,                    !- Service Date Year
    25,                      !- Length of Study Period in Years
    ,                        !- Tax rate
    None;                    !- Depreciation Method

  LifeCycleCost:UsePriceEscalation,
    U.S. Avg  Commercial-Electricity,  !- LCC Price Escalation Name
    Electricity,             !- Resource
    2011,                    !- Escalation Start Year
    January,                 !- Escalation Start Month
    0.9838,                  !- Year 1 Escalation
    0.9730,                  !- Year 2 Escalation
    0.9632,                  !- Year 3 Escalation
    0.9611,                  !- Year 4 Escalation
    0.9571,                  !- Year 5 Escalation
    0.9553,                  !- Year 6 Escalation
    0.9539,                  !- Year 7 Escalation
    0.9521,                  !- Year 8 Escalation
    0.9546,                  !- Year 9 Escalation
    0.9550,                  !- <none>
    0.9553,                  !- <none>
    0.9564,                  !- <none>
    0.9575,                  !- <none>
    0.9596,                  !- <none>
    0.9618,                  !- <none>
    0.9614,                  !- <none>
    0.9618,                  !- <none>
    0.9618,                  !- <none>
    0.9593,                  !- <none>
    0.9589,                  !- <none>
    0.9607,                  !- <none>
    0.9625,                  !- <none>
    0.9650,                  !- <none>
    0.9708,                  !- <none>
    0.9751,                  !- <none>
    0.9762,                  !- <none>
    0.9766,                  !- <none>
    0.9766,                  !- <none>
    0.9769,                  !- <none>
    0.9773;                  !- <none>

  LifeCycleCost:UsePriceEscalation,
    U.S. Avg  Commercial-Distillate Oil,  !- LCC Price Escalation Name
    FuelOilNo1,              !- Resource
    2011,                    !- Escalation Start Year
    January,                 !- Escalation Start Month
    0.9714,                  !- Year 1 Escalation
    0.9730,                  !- Year 2 Escalation
    0.9942,                  !- Year 3 Escalation
    1.0164,                  !- Year 4 Escalation
    1.0541,                  !- Year 5 Escalation
    1.0928,                  !- Year 6 Escalation
    1.1267,                  !- Year 7 Escalation
    1.1580,                  !- Year 8 Escalation
    1.1792,                  !- Year 9 Escalation
    1.1967,                  !- <none>
    1.2200,                  !- <none>
    1.2333,                  !- <none>
    1.2566,                  !- <none>
    1.2709,                  !- <none>
    1.2826,                  !- <none>
    1.2985,                  !- <none>
    1.3102,                  !- <none>
    1.3250,                  !- <none>
    1.3261,                  !- <none>
    1.3282,                  !- <none>
    1.3324,                  !- <none>
    1.3356,                  !- <none>
    1.3431,                  !- <none>
    1.3510,                  !- <none>
    1.3568,                  !- <none>
    1.3606,                  !- <none>
    1.3637,                  !- <none>
    1.3674,                  !- <none>
    1.3706,                  !- <none>
    1.3743;                  !- <none>

  LifeCycleCost:UsePriceEscalation,
    U.S. Avg  Commercial-Residual Oil,  !- LCC Price Escalation Name
    FuelOilNo2,              !- Resource
    2011,                    !- Escalation Start Year
    January,                 !- Escalation Start Month
    0.8469,                  !- Year 1 Escalation
    0.8257,                  !- Year 2 Escalation
    0.8681,                  !- Year 3 Escalation
    0.8988,                  !- Year 4 Escalation
    0.9289,                  !- Year 5 Escalation
    0.9604,                  !- Year 6 Escalation
    0.9897,                  !- Year 7 Escalation
    1.0075,                  !- Year 8 Escalation
    1.0314,                  !- Year 9 Escalation
    1.0554,                  !- <none>
    1.0861,                  !- <none>
    1.1278,                  !- <none>
    1.1497,                  !- <none>
    1.1620,                  !- <none>
    1.1743,                  !- <none>
    1.1852,                  !- <none>
    1.1948,                  !- <none>
    1.2037,                  !- <none>
    1.2071,                  !- <none>
    1.2119,                  !- <none>
    1.2139,                  !- <none>
    1.2194,                  !- <none>
    1.2276,                  !- <none>
    1.2365,                  !- <none>
    1.2420,                  !- <none>
    1.2461,                  !- <none>
    1.2509,                  !- <none>
    1.2550,                  !- <none>
    1.2591,                  !- <none>
    1.2638;                  !- <none>

  LifeCycleCost:UsePriceEscalation,
    U.S. Avg  Commercial-Natural gas,  !- LCC Price Escalation Name
    NaturalGas,              !- Resource
    2011,                    !- Escalation Start Year
    January,                 !- Escalation Start Month
    0.9823,                  !- Year 1 Escalation
    0.9557,                  !- Year 2 Escalation
    0.9279,                  !- Year 3 Escalation
    0.9257,                  !- Year 4 Escalation
    0.9346,                  !- Year 5 Escalation
    0.9412,                  !- Year 6 Escalation
    0.9512,                  !- Year 7 Escalation
    0.9645,                  !- Year 8 Escalation
    0.9856,                  !- Year 9 Escalation
    1.0067,                  !- <none>
    1.0222,                  !- <none>
    1.0410,                  !- <none>
    1.0610,                  !- <none>
    1.0787,                  !- <none>
    1.0942,                  !- <none>
    1.1098,                  !- <none>
    1.1220,                  !- <none>
    1.1308,                  !- <none>
    1.1386,                  !- <none>
    1.1486,                  !- <none>
    1.1619,                  !- <none>
    1.1763,                  !- <none>
    1.1918,                  !- <none>
    1.2118,                  !- <none>
    1.2284,                  !- <none>
    1.2439,                  !- <none>
    1.2605,                  !- <none>
    1.2772,                  !- <none>
    1.2938,                  !- <none>
    1.3115;                  !- <none>

  LifeCycleCost:UsePriceEscalation,
    U.S. Avg  Commercial-Coal,  !- LCC Price Escalation Name
    Coal,                    !- Resource
    2011,                    !- Escalation Start Year
    January,                 !- Escalation Start Month
    0.9970,                  !- Year 1 Escalation
    1.0089,                  !- Year 2 Escalation
    1.0089,                  !- Year 3 Escalation
    0.9941,                  !- Year 4 Escalation
    0.9941,                  !- Year 5 Escalation
    1.0000,                  !- Year 6 Escalation
    1.0030,                  !- Year 7 Escalation
    1.0059,                  !- Year 8 Escalation
    1.0089,                  !- Year 9 Escalation
    1.0119,                  !- <none>
    1.0148,                  !- <none>
    1.0178,                  !- <none>
    1.0208,                  !- <none>
    1.0267,                  !- <none>
    1.0297,                  !- <none>
    1.0356,                  !- <none>
    1.0415,                  !- <none>
    1.0534,                  !- <none>
    1.0564,                  !- <none>
    1.0593,                  !- <none>
    1.0653,                  !- <none>
    1.0712,                  !- <none>
    1.0742,                  !- <none>
    1.0801,                  !- <none>
    1.0831,                  !- <none>
    1.0831,                  !- <none>
    1.0861,                  !- <none>
    1.0890,                  !- <none>
    1.0920,                  !- <none>
    1.0950;                  !- <none>

  Building,
    -SmallOffice-ASHRAE 169-2013-2A created: 2022-10-13 11:31:10 +0200,  !- Name
    0,                       !- North Axis {deg}
    City,                    !- Terrain
    0.04,                    !- Loads Convergence Tolerance Value {W}
    0.2,                     !- Temperature Convergence Tolerance Value {deltaC}
    FullInteriorAndExterior, !- Solar Distribution
    25,                      !- Maximum Number of Warmup Days
    6;                       !- Minimum Number of Warmup Days

  Zone,
    Attic ZN,                !- Name
    0,                       !- Direction of Relative North {deg}
    0,                       !- X Origin {m}
    0,                       !- Y Origin {m}
    0,                       !- Z Origin {m}
    ,                        !- Type
    1,                       !- Multiplier
    ,                        !- Ceiling Height {m}
    ,                        !- Volume {m3}
    ,                        !- Floor Area {m2}
    ,                        !- Zone Inside Convection Algorithm
    ,                        !- Zone Outside Convection Algorithm
    No;                      !- Part of Total Floor Area

  BuildingSurface:Detailed,
    Attic_floor_core,        !- Name
    Floor,                   !- Surface Type
    Typical Wood Joist Attic Floor R-37.04 1,  !- Construction Name
    Attic ZN,                !- Zone Name
    ,                        !- Space Name
    Surface,                 !- Outside Boundary Condition
    Core_ZN_ceiling,         !- Outside Boundary Condition Object
    NoSun,                   !- Sun Exposure
    NoWind,                  !- Wind Exposure
    ,                        !- View Factor to Ground
    ,                        !- Number of Vertices
    22.69,13.46,3.05,  !- X,Y,Z ==> Vertex 1 {m}
    22.69,5,3.05,  !- X,Y,Z ==> Vertex 2 {m}
    5,5,3.05,  !- X,Y,Z ==> Vertex 3 {m}
    5,13.46,3.05;  !- X,Y,Z ==> Vertex 4 {m}

  BuildingSurface:Detailed,
    Attic_floor_perimeter_east,  !- Name
    Floor,                   !- Surface Type
    Typical Wood Joist Attic Floor R-37.04 1,  !- Construction Name
    Attic ZN,                !- Zone Name
    ,                        !- Space Name
    Surface,                 !- Outside Boundary Condition
    Perimeter_ZN_2_ceiling,  !- Outside Boundary Condition Object
    NoSun,                   !- Sun Exposure
    NoWind,                  !- Wind Exposure
    ,                        !- View Factor to Ground
    ,                        !- Number of Vertices
    27.69,18.46,3.05,  !- X,Y,Z ==> Vertex 1 {m}
    27.69,0,3.05,  !- X,Y,Z ==> Vertex 2 {m}
    22.69,5,3.05,  !- X,Y,Z ==> Vertex 3 {m}
    22.69,13.46,3.05;  !- X,Y,Z ==> Vertex 4 {m}

  BuildingSurface:Detailed,
    Attic_floor_perimeter_north,  !- Name
    Floor,                   !- Surface Type
    Typical Wood Joist Attic Floor R-37.04 1,  !- Construction Name
    Attic ZN,                !- Zone Name
    ,                        !- Space Name
    Surface,                 !- Outside Boundary Condition
    Perimeter_ZN_3_ceiling,  !- Outside Boundary Condition Object
    NoSun,                   !- Sun Exposure
    NoWind,                  !- Wind Exposure
    ,                        !- View Factor to Ground
    ,                        !- Number of Vertices
    27.69,18.46,3.05,  !- X,Y,Z ==> Vertex 1 {m}
    22.69,13.46,3.05,  !- X,Y,Z ==> Vertex 2 {m}
    5,13.46,3.05,  !- X,Y,Z ==> Vertex 3 {m}
    0,18.46,3.05;  !- X,Y,Z ==> Vertex 4 {m}

  BuildingSurface:Detailed,
    Attic_floor_perimeter_south,  !- Name
    Floor,                   !- Surface Type
    Typical Wood Joist Attic Floor R-37.04 1,  !- Construction Name
    Attic ZN,                !- Zone Name
    ,                        !- Space Name
    Surface,                 !- Outside Boundary Condition
    Perimeter_ZN_1_ceiling,  !- Outside Boundary Condition Object
    NoSun,                   !- Sun Exposure
    NoWind,                  !- Wind Exposure
    ,                        !- View Factor to Ground
    ,                        !- Number of Vertices
    22.69,5,3.05,  !- X,Y,Z ==> Vertex 1 {m}
    27.69,0,3.05,  !- X,Y,Z ==> Vertex 2 {m}
    0,0,3.05,  !- X,Y,Z ==> Vertex 3 {m}
    5,5,3.05;  !- X,Y,Z ==> Vertex 4 {m}

  BuildingSurface:Detailed,
    Attic_floor_perimeter_west,  !- Name
    Floor,                   !- Surface Type
    Typical Wood Joist Attic Floor R-37.04 1,  !- Construction Name
    Attic ZN,                !- Zone Name
    ,                        !- Space Name
    Surface,                 !- Outside Boundary Condition
    Perimeter_ZN_4_ceiling,  !- Outside Boundary Condition Object
    NoSun,                   !- Sun Exposure
    NoWind,                  !- Wind Exposure
    ,                        !- View Factor to Ground
    ,                        !- Number of Vertices
    0,18.46,3.05,  !- X,Y,Z ==> Vertex 1 {m}
    5,13.46,3.05,  !- X,Y,Z ==> Vertex 2 {m}
    5,5,3.05,  !- X,Y,Z ==> Vertex 3 {m}
    0,0,3.05;  !- X,Y,Z ==> Vertex 4 {m}

  BuildingSurface:Detailed,
    Attic_roof_east,         !- Name
    Roof,                    !- Surface Type
    Typical Uninsulated Wood Joist Attic Roof,  !- Construction Name
    Attic ZN,                !- Zone Name
    ,                        !- Space Name
    Outdoors,                !- Outside Boundary Condition
    ,                        !- Outside Boundary Condition Object
    SunExposed,              !- Sun Exposure
    WindExposed,             !- Wind Exposure
    ,                        !- View Factor to Ground
    ,                        !- Number of Vertices
    18.46,9.23,6.33,  !- X,Y,Z ==> Vertex 1 {m}
    28.29,-0.6,3.05,  !- X,Y,Z ==> Vertex 2 {m}
    28.29,19.06,3.05;  !- X,Y,Z ==> Vertex 3 {m}

  BuildingSurface:Detailed,
    Attic_roof_north,        !- Name
    Roof,                    !- Surface Type
    Typical Uninsulated Wood Joist Attic Roof,  !- Construction Name
    Attic ZN,                !- Zone Name
    ,                        !- Space Name
    Outdoors,                !- Outside Boundary Condition
    ,                        !- Outside Boundary Condition Object
    SunExposed,              !- Sun Exposure
    WindExposed,             !- Wind Exposure
    ,                        !- View Factor to Ground
    ,                        !- Number of Vertices
    18.46,9.23,6.33,  !- X,Y,Z ==> Vertex 1 {m}
    28.29,19.06,3.05,  !- X,Y,Z ==> Vertex 2 {m}
    -0.6,19.06,3.05,  !- X,Y,Z ==> Vertex 3 {m}
    9.23,9.23,6.33;  !- X,Y,Z ==> Vertex 4 {m}

  BuildingSurface:Detailed,
    Attic_roof_south,        !- Name
    Roof,                    !- Surface Type
    Typical Uninsulated Wood Joist Attic Roof,  !- Construction Name
    Attic ZN,                !- Zone Name
    ,                        !- Space Name
    Outdoors,                !- Outside Boundary Condition
    ,                        !- Outside Boundary Condition Object
    SunExposed,              !- Sun Exposure
    WindExposed,             !- Wind Exposure
    ,                        !- View Factor to Ground
    ,                        !- Number of Vertices
    9.23,9.23,6.33,  !- X,Y,Z ==> Vertex 1 {m}
    -0.6,-0.6,3.05,  !- X,Y,Z ==> Vertex 2 {m}
    28.29,-0.6,3.05,  !- X,Y,Z ==> Vertex 3 {m}
    18.46,9.23,6.33;  !- X,Y,Z ==> Vertex 4 {m}

  BuildingSurface:Detailed,
    Attic_roof_west,         !- Name
    Roof,                    !- Surface Type
    Typical Uninsulated Wood Joist Attic Roof,  !- Construction Name
    Attic ZN,                !- Zone Name
    ,                        !- Space Name
    Outdoors,                !- Outside Boundary Condition
    ,                        !- Outside Boundary Condition Object
    SunExposed,              !- Sun Exposure
    WindExposed,             !- Wind Exposure
    ,                        !- View Factor to Ground
    ,                        !- Number of Vertices
    9.23,9.23,6.33,  !- X,Y,Z ==> Vertex 1 {m}
    -0.6,19.06,3.05,  !- X,Y,Z ==> Vertex 2 {m}
    -0.6,-0.6,3.05;  !- X,Y,Z ==> Vertex 3 {m}

  BuildingSurface:Detailed,
    Attic_soffit_east,       !- Name
    Floor,                   !- Surface Type
    Typical Attic Soffit,    !- Construction Name
    Attic ZN,                !- Zone Name
    ,                        !- Space Name
    Outdoors,                !- Outside Boundary Condition
    ,                        !- Outside Boundary Condition Object
    SunExposed,              !- Sun Exposure
    WindExposed,             !- Wind Exposure
    ,                        !- View Factor to Ground
    ,                        !- Number of Vertices
    28.29,19.06,3.05,  !- X,Y,Z ==> Vertex 1 {m}
    28.29,-0.6,3.05,  !- X,Y,Z ==> Vertex 2 {m}
    27.69,0,3.05,  !- X,Y,Z ==> Vertex 3 {m}
    27.69,18.46,3.05;  !- X,Y,Z ==> Vertex 4 {m}

  BuildingSurface:Detailed,
    Attic_soffit_north,      !- Name
    Floor,                   !- Surface Type
    Typical Attic Soffit,    !- Construction Name
    Attic ZN,                !- Zone Name
    ,                        !- Space Name
    Outdoors,                !- Outside Boundary Condition
    ,                        !- Outside Boundary Condition Object
    SunExposed,              !- Sun Exposure
    WindExposed,             !- Wind Exposure
    ,                        !- View Factor to Ground
    ,                        !- Number of Vertices
    28.29,19.06,3.05,  !- X,Y,Z ==> Vertex 1 {m}
    27.69,18.46,3.05,  !- X,Y,Z ==> Vertex 2 {m}
    0,18.46,3.05,  !- X,Y,Z ==> Vertex 3 {m}
    -0.6,19.06,3.05;  !- X,Y,Z ==> Vertex 4 {m}

  BuildingSurface:Detailed,
    Attic_soffit_south,      !- Name
    Floor,                   !- Surface Type
    Typical Attic Soffit,    !- Construction Name
    Attic ZN,                !- Zone Name
    ,                        !- Space Name
    Outdoors,                !- Outside Boundary Condition
    ,                        !- Outside Boundary Condition Object
    SunExposed,              !- Sun Exposure
    WindExposed,             !- Wind Exposure
    ,                        !- View Factor to Ground
    ,                        !- Number of Vertices
    27.69,0,3.05,  !- X,Y,Z ==> Vertex 1 {m}
    28.29,-0.6,3.05,  !- X,Y,Z ==> Vertex 2 {m}
    -0.6,-0.6,3.05,  !- X,Y,Z ==> Vertex 3 {m}
    0,0,3.05;  !- X,Y,Z ==> Vertex 4 {m}

  BuildingSurface:Detailed,
    Attic_soffit_west,       !- Name
    Floor,                   !- Surface Type
    Typical Attic Soffit,    !- Construction Name
    Attic ZN,                !- Zone Name
    ,                        !- Space Name
    Outdoors,                !- Outside Boundary Condition
    ,                        !- Outside Boundary Condition Object
    SunExposed,              !- Sun Exposure
    WindExposed,             !- Wind Exposure
    ,                        !- View Factor to Ground
    ,                        !- Number of Vertices
    -0.6,19.06,3.05,  !- X,Y,Z ==> Vertex 1 {m}
    0,18.46,3.05,  !- X,Y,Z ==> Vertex 2 {m}
    0,0,3.05,  !- X,Y,Z ==> Vertex 3 {m}
    -0.6,-0.6,3.05;  !- X,Y,Z ==> Vertex 4 {m}

  InternalMass,
    Attic Mass,              !- Name
    InteriorFurnishings,     !- Construction Name
    Attic ZN,                !- Zone or ZoneList Name
    ,                        !- Space or SpaceList Name
    1135.9548;               !- Surface Area {m2}

  ZoneInfiltration:DesignFlowRate,
    attic Infiltration,      !- Name
    Attic ZN,                !- Zone or ZoneList or Space or SpaceList Name
    Always On,               !- Schedule Name
    Flow/Zone,               !- Design Flow Rate Calculation Method
    0.2001,                  !- Design Flow Rate {m3/s}
    ,                        !- Flow Rate per Floor Area {m3/s-m2}
    ,                        !- Flow Rate per Exterior Surface Area {m3/s-m2}
    ,                        !- Air Changes per Hour {1/hr}
    1,                       !- Constant Term Coefficient
    0,                       !- Temperature Term Coefficient
    0,                       !- Velocity Term Coefficient
    0;                       !- Velocity Squared Term Coefficient

  Zone,
    Core_ZN ZN,              !- Name
    0,                       !- Direction of Relative North {deg}
    0,                       !- X Origin {m}
    0,                       !- Y Origin {m}
    0,                       !- Z Origin {m}
    ,                        !- Type
    1,                       !- Multiplier
    ,                        !- Ceiling Height {m}
    ,                        !- Volume {m3}
    ,                        !- Floor Area {m2}
    ,                        !- Zone Inside Convection Algorithm
    ,                        !- Zone Outside Convection Algorithm
    Yes;                     !- Part of Total Floor Area

  BuildingSurface:Detailed,
    Core_ZN_ceiling,         !- Name
    Ceiling,                 !- Surface Type
    Typical Wood Joist Attic Floor R-37.04 1 Reversed,  !- Construction Name
    Core_ZN ZN,              !- Zone Name
    ,                        !- Space Name
    Surface,                 !- Outside Boundary Condition
    Attic_floor_core,        !- Outside Boundary Condition Object
    NoSun,                   !- Sun Exposure
    NoWind,                  !- Wind Exposure
    ,                        !- View Factor to Ground
    ,                        !- Number of Vertices
    22.69,5,3.05,  !- X,Y,Z ==> Vertex 1 {m}
    22.69,13.46,3.05,  !- X,Y,Z ==> Vertex 2 {m}
    5,13.46,3.05,  !- X,Y,Z ==> Vertex 3 {m}
    5,5,3.05;  !- X,Y,Z ==> Vertex 4 {m}

  BuildingSurface:Detailed,
    Core_ZN_floor,           !- Name
    Floor,                   !- Surface Type
    Foundation F 126 Perim 0 Area 14966,  !- Construction Name
    Core_ZN ZN,              !- Zone Name
    ,                        !- Space Name
    GroundFCfactorMethod,    !- Outside Boundary Condition
    ,                        !- Outside Boundary Condition Object
    NoSun,                   !- Sun Exposure
    NoWind,                  !- Wind Exposure
    ,                        !- View Factor to Ground
    ,                        !- Number of Vertices
    22.69,13.46,0,  !- X,Y,Z ==> Vertex 1 {m}
    22.69,5,0,  !- X,Y,Z ==> Vertex 2 {m}
    5,5,0,  !- X,Y,Z ==> Vertex 3 {m}
    5,13.46,0;  !- X,Y,Z ==> Vertex 4 {m}

  BuildingSurface:Detailed,
    Core_ZN_wall_east,       !- Name
    Wall,                    !- Surface Type
    Typical Interior Wall,   !- Construction Name
    Core_ZN ZN,              !- Zone Name
    ,                        !- Space Name
    Surface,                 !- Outside Boundary Condition
    Perimeter_ZN_2_wall_west,!- Outside Boundary Condition Object
    NoSun,                   !- Sun Exposure
    NoWind,                  !- Wind Exposure
    ,                        !- View Factor to Ground
    ,                        !- Number of Vertices
    22.69,5,3.05,  !- X,Y,Z ==> Vertex 1 {m}
    22.69,5,0,  !- X,Y,Z ==> Vertex 2 {m}
    22.69,13.46,0,  !- X,Y,Z ==> Vertex 3 {m}
    22.69,13.46,3.05;  !- X,Y,Z ==> Vertex 4 {m}

  BuildingSurface:Detailed,
    Core_ZN_wall_north,      !- Name
    Wall,                    !- Surface Type
    Typical Interior Wall,   !- Construction Name
    Core_ZN ZN,              !- Zone Name
    ,                        !- Space Name
    Surface,                 !- Outside Boundary Condition
    Perimeter_ZN_3_wall_south,  !- Outside Boundary Condition Object
    NoSun,                   !- Sun Exposure
    NoWind,                  !- Wind Exposure
    ,                        !- View Factor to Ground
    ,                        !- Number of Vertices
    22.69,13.46,3.05,  !- X,Y,Z ==> Vertex 1 {m}
    22.69,13.46,0,  !- X,Y,Z ==> Vertex 2 {m}
    5,13.46,0,  !- X,Y,Z ==> Vertex 3 {m}
    5,13.46,3.05;  !- X,Y,Z ==> Vertex 4 {m}

  BuildingSurface:Detailed,
    Core_ZN_wall_south,      !- Name
    Wall,                    !- Surface Type
    Typical Interior Wall,   !- Construction Name
    Core_ZN ZN,              !- Zone Name
    ,                        !- Space Name
    Surface,                 !- Outside Boundary Condition
    Perimeter_ZN_1_wall_north,  !- Outside Boundary Condition Object
    NoSun,                   !- Sun Exposure
    NoWind,                  !- Wind Exposure
    ,                        !- View Factor to Ground
    ,                        !- Number of Vertices
    5,5,3.05,  !- X,Y,Z ==> Vertex 1 {m}
    5,5,0,  !- X,Y,Z ==> Vertex 2 {m}
    22.69,5,0,  !- X,Y,Z ==> Vertex 3 {m}
    22.69,5,3.05;  !- X,Y,Z ==> Vertex 4 {m}

  BuildingSurface:Detailed,
    Core_ZN_wall_west,       !- Name
    Wall,                    !- Surface Type
    Typical Interior Wall,   !- Construction Name
    Core_ZN ZN,              !- Zone Name
    ,                        !- Space Name
    Surface,                 !- Outside Boundary Condition
    Perimeter_ZN_4_wall_east,!- Outside Boundary Condition Object
    NoSun,                   !- Sun Exposure
    NoWind,                  !- Wind Exposure
    ,                        !- View Factor to Ground
    ,                        !- Number of Vertices
    5,13.46,3.05,  !- X,Y,Z ==> Vertex 1 {m}
    5,13.46,0,  !- X,Y,Z ==> Vertex 2 {m}
    5,5,0,  !- X,Y,Z ==> Vertex 3 {m}
    5,5,3.05;  !- X,Y,Z ==> Vertex 4 {m}

  InternalMass,
    Core_ZN Mass,            !- Name
    InteriorFurnishings,     !- Construction Name
    Core_ZN ZN,              !- Zone or ZoneList Name
    ,                        !- Space or SpaceList Name
    299.3148;                !- Surface Area {m2}

  Zone,
    Perimeter_ZN_1 ZN,       !- Name
    0,                       !- Direction of Relative North {deg}
    0,                       !- X Origin {m}
    0,                       !- Y Origin {m}
    0,                       !- Z Origin {m}
    ,                        !- Type
    1,                       !- Multiplier
    ,                        !- Ceiling Height {m}
    ,                        !- Volume {m3}
    ,                        !- Floor Area {m2}
    ,                        !- Zone Inside Convection Algorithm
    ,                        !- Zone Outside Convection Algorithm
    Yes;                     !- Part of Total Floor Area

  BuildingSurface:Detailed,
    Perimeter_ZN_1_ceiling,  !- Name
    Ceiling,                 !- Surface Type
    Typical Wood Joist Attic Floor R-37.04 1 Reversed,  !- Construction Name
    Perimeter_ZN_1 ZN,       !- Zone Name
    ,                        !- Space Name
    Surface,                 !- Outside Boundary Condition
    Attic_floor_perimeter_south,  !- Outside Boundary Condition Object
    NoSun,                   !- Sun Exposure
    NoWind,                  !- Wind Exposure
    ,                        !- View Factor to Ground
    ,                        !- Number of Vertices
    27.69,0,3.05,  !- X,Y,Z ==> Vertex 1 {m}
    22.69,5,3.05,  !- X,Y,Z ==> Vertex 2 {m}
    5,5,3.05,  !- X,Y,Z ==> Vertex 3 {m}
    0,0,3.05;  !- X,Y,Z ==> Vertex 4 {m}

  BuildingSurface:Detailed,
    Perimeter_ZN_1_floor,    !- Name
    Floor,                   !- Surface Type
    Foundation F 126 Perim 2769 Area 11345,  !- Construction Name
    Perimeter_ZN_1 ZN,       !- Zone Name
    ,                        !- Space Name
    GroundFCfactorMethod,    !- Outside Boundary Condition
    ,                        !- Outside Boundary Condition Object
    NoSun,                   !- Sun Exposure
    NoWind,                  !- Wind Exposure
    ,                        !- View Factor to Ground
    ,                        !- Number of Vertices
    22.69,5,0,  !- X,Y,Z ==> Vertex 1 {m}
    27.69,0,0,  !- X,Y,Z ==> Vertex 2 {m}
    0,0,0,  !- X,Y,Z ==> Vertex 3 {m}
    5,5,0;  !- X,Y,Z ==> Vertex 4 {m}

  BuildingSurface:Detailed,
    Perimeter_ZN_1_wall_east,!- Name
    Wall,                    !- Surface Type
    Typical Interior Wall,   !- Construction Name
    Perimeter_ZN_1 ZN,       !- Zone Name
    ,                        !- Space Name
    Surface,                 !- Outside Boundary Condition
    Perimeter_ZN_2_wall_south,  !- Outside Boundary Condition Object
    NoSun,                   !- Sun Exposure
    NoWind,                  !- Wind Exposure
    ,                        !- View Factor to Ground
    ,                        !- Number of Vertices
    27.69,0,3.05,  !- X,Y,Z ==> Vertex 1 {m}
    27.69,0,0,  !- X,Y,Z ==> Vertex 2 {m}
    22.69,5,0,  !- X,Y,Z ==> Vertex 3 {m}
    22.69,5,3.05;  !- X,Y,Z ==> Vertex 4 {m}

  BuildingSurface:Detailed,
    Perimeter_ZN_1_wall_north,  !- Name
    Wall,                    !- Surface Type
    Typical Interior Wall,   !- Construction Name
    Perimeter_ZN_1 ZN,       !- Zone Name
    ,                        !- Space Name
    Surface,                 !- Outside Boundary Condition
    Core_ZN_wall_south,      !- Outside Boundary Condition Object
    NoSun,                   !- Sun Exposure
    NoWind,                  !- Wind Exposure
    ,                        !- View Factor to Ground
    ,                        !- Number of Vertices
    22.69,5,3.05,  !- X,Y,Z ==> Vertex 1 {m}
    22.69,5,0,  !- X,Y,Z ==> Vertex 2 {m}
    5,5,0,  !- X,Y,Z ==> Vertex 3 {m}
    5,5,3.05;  !- X,Y,Z ==> Vertex 4 {m}

  BuildingSurface:Detailed,
    Perimeter_ZN_1_wall_south,  !- Name
    Wall,                    !- Surface Type
    Typical Insulated Wood Framed Exterior Wall R-11.24,  !- Construction Name
    Perimeter_ZN_1 ZN,       !- Zone Name
    ,                        !- Space Name
    Outdoors,                !- Outside Boundary Condition
    ,                        !- Outside Boundary Condition Object
    SunExposed,              !- Sun Exposure
    WindExposed,             !- Wind Exposure