
Version,
  23.2;                                   !- Version Identifier

Timestep,
  1;                                      !- Number of Timesteps per Hour

LifeCycleCost:Parameters,
  Life Cycle Cost Parameters,             !- Name
  EndOfYear,                              !- Discounting Convention
  ConstantDollar,                         !- Inflation Approach
  0.03,                                   !- Real Discount Rate
  ,                                       !- Nominal Discount Rate
  ,                                       !- Inflation
  ,                                       !- Base Date Month
  2011,                                   !- Base Date Year
  ,                                       !- Service Date Month
  2011,                                   !- Service Date Year
  25,                                     !- Length of Study Period in Years
  ,                                       !- Tax rate
  None;                                   !- Depreciation Method

LifeCycleCost:UsePriceEscalation,
  U.S. Avg  Commercial-Electricity,       !- Name
  Electricity,                            !- Resource
  2011,                                   !- Escalation Start Year
  January,                                !- Escalation Start Month
  0.9838,                                 !- Year Escalation 1
  0.9730,                                 !- Year Escalation 2
  0.9632,                                 !- Year Escalation 3
  0.9611,                                 !- Year Escalation 4
  0.9571,                                 !- Year Escalation 5
  0.9553,                                 !- Year Escalation 6
  0.9539,                                 !- Year Escalation 7
  0.9521,                                 !- Year Escalation 8
  0.9546,                                 !- Year Escalation 9
  0.9550,                                 !- Year Escalation 10
  0.9553,                                 !- Year Escalation 11
  0.9564,                                 !- Year Escalation 12
  0.9575,                                 !- Year Escalation 13
  0.9596,                                 !- Year Escalation 14
  0.9618,                                 !- Year Escalation 15
  0.9614,                                 !- Year Escalation 16
  0.9618,                                 !- Year Escalation 17
  0.9618,                                 !- Year Escalation 18
  0.9593,                                 !- Year Escalation 19
  0.9589,                                 !- Year Escalation 20
  0.9607,                                 !- Year Escalation 21
  0.9625,                                 !- Year Escalation 22
  0.9650,                                 !- Year Escalation 23
  0.9708,                                 !- Year Escalation 24
  0.9751,                                 !- Year Escalation 25
  0.9762,                                 !- Year Escalation 26
  0.9766,                                 !- Year Escalation 27
  0.9766,                                 !- Year Escalation 28
  0.9769,                                 !- Year Escalation 29
  0.9773;                                 !- Year Escalation 30

LifeCycleCost:UsePriceEscalation,
  U.S. Avg  Commercial-Distillate Oil,    !- Name
  FuelOilNo1,                             !- Resource
  2011,                                   !- Escalation Start Year
  January,                                !- Escalation Start Month
  0.9714,                                 !- Year Escalation 1
  0.9730,                                 !- Year Escalation 2
  0.9942,                                 !- Year Escalation 3
  1.0164,                                 !- Year Escalation 4
  1.0541,                                 !- Year Escalation 5
  1.0928,                                 !- Year Escalation 6
  1.1267,                                 !- Year Escalation 7
  1.1580,                                 !- Year Escalation 8
  1.1792,                                 !- Year Escalation 9
  1.1967,                                 !- Year Escalation 10
  1.2200,                                 !- Year Escalation 11
  1.2333,                                 !- Year Escalation 12
  1.2566,                                 !- Year Escalation 13
  1.2709,                                 !- Year Escalation 14
  1.2826,                                 !- Year Escalation 15
  1.2985,                                 !- Year Escalation 16
  1.3102,                                 !- Year Escalation 17
  1.3250,                                 !- Year Escalation 18
  1.3261,                                 !- Year Escalation 19
  1.3282,                                 !- Year Escalation 20
  1.3324,                                 !- Year Escalation 21
  1.3356,                                 !- Year Escalation 22
  1.3431,                                 !- Year Escalation 23
  1.3510,                                 !- Year Escalation 24
  1.3568,                                 !- Year Escalation 25
  1.3606,                                 !- Year Escalation 26
  1.3637,                                 !- Year Escalation 27
  1.3674,                                 !- Year Escalation 28
  1.3706,                                 !- Year Escalation 29
  1.3743;                                 !- Year Escalation 30

LifeCycleCost:UsePriceEscalation,
  U.S. Avg  Commercial-Residual Oil,      !- Name
  FuelOilNo2,                             !- Resource
  2011,                                   !- Escalation Start Year
  January,                                !- Escalation Start Month
  0.8469,                                 !- Year Escalation 1
  0.8257,                                 !- Year Escalation 2
  0.8681,                                 !- Year Escalation 3
  0.8988,                                 !- Year Escalation 4
  0.9289,                                 !- Year Escalation 5
  0.9604,                                 !- Year Escalation 6
  0.9897,                                 !- Year Escalation 7
  1.0075,                                 !- Year Escalation 8
  1.0314,                                 !- Year Escalation 9
  1.0554,                                 !- Year Escalation 10
  1.0861,                                 !- Year Escalation 11
  1.1278,                                 !- Year Escalation 12
  1.1497,                                 !- Year Escalation 13
  1.1620,                                 !- Year Escalation 14
  1.1743,                                 !- Year Escalation 15
  1.1852,                                 !- Year Escalation 16
  1.1948,                                 !- Year Escalation 17
  1.2037,                                 !- Year Escalation 18
  1.2071,                                 !- Year Escalation 19
  1.2119,                                 !- Year Escalation 20
  1.2139,                                 !- Year Escalation 21
  1.2194,                                 !- Year Escalation 22
  1.2276,                                 !- Year Escalation 23
  1.2365,                                 !- Year Escalation 24
  1.2420,                                 !- Year Escalation 25
  1.2461,                                 !- Year Escalation 26
  1.2509,                                 !- Year Escalation 27
  1.2550,                                 !- Year Escalation 28
  1.2591,                                 !- Year Escalation 29
  1.2638;                                 !- Year Escalation 30

LifeCycleCost:UsePriceEscalation,
  U.S. Avg  Commercial-Natural gas,       !- Name
  NaturalGas,                             !- Resource
  2011,                                   !- Escalation Start Year
  January,                                !- Escalation Start Month
  0.9823,                                 !- Year Escalation 1
  0.9557,                                 !- Year Escalation 2
  0.9279,                                 !- Year Escalation 3
  0.9257,                                 !- Year Escalation 4
  0.9346,                                 !- Year Escalation 5
  0.9412,                                 !- Year Escalation 6
  0.9512,                                 !- Year Escalation 7
  0.9645,                                 !- Year Escalation 8
  0.9856,                                 !- Year Escalation 9
  1.0067,                                 !- Year Escalation 10
  1.0222,                                 !- Year Escalation 11
  1.0410,                                 !- Year Escalation 12
  1.0610,                                 !- Year Escalation 13
  1.0787,                                 !- Year Escalation 14
  1.0942,                                 !- Year Escalation 15
  1.1098,                                 !- Year Escalation 16
  1.1220,                                 !- Year Escalation 17
  1.1308,                                 !- Year Escalation 18
  1.1386,                                 !- Year Escalation 19
  1.1486,                                 !- Year Escalation 20
  1.1619,                                 !- Year Escalation 21
  1.1763,                                 !- Year Escalation 22
  1.1918,                                 !- Year Escalation 23
  1.2118,                                 !- Year Escalation 24
  1.2284,                                 !- Year Escalation 25
  1.2439,                                 !- Year Escalation 26
  1.2605,                                 !- Year Escalation 27
  1.2772,                                 !- Year Escalation 28
  1.2938,                                 !- Year Escalation 29
  1.3115;                                 !- Year Escalation 30

LifeCycleCost:UsePriceEscalation,
  U.S. Avg  Commercial-Coal,              !- Name
  Coal,                                   !- Resource
  2011,                                   !- Escalation Start Year
  January,                                !- Escalation Start Month
  0.9970,                                 !- Year Escalation 1
  1.0089,                                 !- Year Escalation 2
  1.0089,                                 !- Year Escalation 3
  0.9941,                                 !- Year Escalation 4
  0.9941,                                 !- Year Escalation 5
  1.0000,                                 !- Year Escalation 6
  1.0030,                                 !- Year Escalation 7
  1.0059,                                 !- Year Escalation 8
  1.0089,                                 !- Year Escalation 9
  1.0119,                                 !- Year Escalation 10
  1.0148,                                 !- Year Escalation 11
  1.0178,                                 !- Year Escalation 12
  1.0208,                                 !- Year Escalation 13
  1.0267,                                 !- Year Escalation 14
  1.0297,                                 !- Year Escalation 15
  1.0356,                                 !- Year Escalation 16
  1.0415,                                 !- Year Escalation 17
  1.0534,                                 !- Year Escalation 18
  1.0564,                                 !- Year Escalation 19
  1.0593,                                 !- Year Escalation 20
  1.0653,                                 !- Year Escalation 21
  1.0712,                                 !- Year Escalation 22
  1.0742,                                 !- Year Escalation 23
  1.0801,                                 !- Year Escalation 24
  1.0831,                                 !- Year Escalation 25
  1.0831,                                 !- Year Escalation 26
  1.0861,                                 !- Year Escalation 27
  1.0890,                                 !- Year Escalation 28
  1.0920,                                 !- Year Escalation 29
  1.0950;                                 !- Year Escalation 30

Building,
  Building 1,                             !- Name
  -0,                                     !- North Axis {deg}
  ,                                       !- Terrain
  ,                                       !- Loads Convergence Tolerance Value {W}
  ,                                       !- Temperature Convergence Tolerance Value {deltaC}
  ,                                       !- Solar Distribution
  ,                                       !- Maximum Number of Warmup Days
  ;                                       !- Minimum Number of Warmup Days

Shading:Building:Detailed,
  Shading Surface 17,                     !- Name
  ,                                       !- Transmittance Schedule Name
  ,                                       !- Number of Vertices
  18, -12.65, 13.2,                       !- X,Y,Z Vertex 1 {m}
  18, -12.65, 0,                          !- X,Y,Z Vertex 2 {m}
  21, -12.65, 0,                          !- X,Y,Z Vertex 3 {m}
  21, -12.65, 13.2;                       !- X,Y,Z Vertex 4 {m}

Shading:Building:Detailed,
  Shading Surface 18,                     !- Name
  ,                                       !- Transmittance Schedule Name
  ,                                       !- Number of Vertices
  21, -12.65, 13.2,                       !- X,Y,Z Vertex 1 {m}
  21, -12.65, 0,                          !- X,Y,Z Vertex 2 {m}
  21, -7.65, 0,                           !- X,Y,Z Vertex 3 {m}
  21, -7.65, 13.2;                        !- X,Y,Z Vertex 4 {m}

Shading:Building:Detailed,
  Shading Surface 19,                     !- Name
  ,                                       !- Transmittance Schedule Name
  ,                                       !- Number of Vertices
  21, -7.65, 13.2,                        !- X,Y,Z Vertex 1 {m}
  21, -7.65, 0,                           !- X,Y,Z Vertex 2 {m}
  18, -7.65, 0,                           !- X,Y,Z Vertex 3 {m}
  18, -7.65, 13.2;                        !- X,Y,Z Vertex 4 {m}

Shading:Building:Detailed,
  Shading Surface 20,                     !- Name
  ,                                       !- Transmittance Schedule Name
  ,                                       !- Number of Vertices
  -2.92885505467912e-15, -7.65, 13.2,     !- X,Y,Z Vertex 1 {m}
  -2.92885505467912e-15, -7.65, 1.97407612746622e-32, !- X,Y,Z Vertex 2 {m}
  -3, -7.65, -1.97407612746622e-32,       !- X,Y,Z Vertex 3 {m}
  -3, -7.65, 13.2;                        !- X,Y,Z Vertex 4 {m}

Shading:Building:Detailed,
  Shading Surface 21,                     !- Name
  ,                                       !- Transmittance Schedule Name
  ,                                       !- Number of Vertices
  -3, -12.65, 13.2,                       !- X,Y,Z Vertex 1 {m}
  -3, -12.65, 0,                          !- X,Y,Z Vertex 2 {m}
  -2.62269335489228e-15, -12.65, 0,       !- X,Y,Z Vertex 3 {m}
  -2.62269335489228e-15, -12.65, 13.2;    !- X,Y,Z Vertex 4 {m}

Shading:Building:Detailed,
  Shading Surface 22,                     !- Name
  ,                                       !- Transmittance Schedule Name
  ,                                       !- Number of Vertices
  -3, -7.65, 13.2,                        !- X,Y,Z Vertex 1 {m}
  -3, -7.65, -1.97407612746622e-32,       !- X,Y,Z Vertex 2 {m}
  -3, -12.65, 0,                          !- X,Y,Z Vertex 3 {m}
  -3, -12.65, 13.2;                       !- X,Y,Z Vertex 4 {m}

Shading:Building:Detailed,
  Shading Surface 23,                     !- Name
  ,                                       !- Transmittance Schedule Name
  ,                                       !- Number of Vertices
  45, -30.3, 13.2,                        !- X,Y,Z Vertex 1 {m}
  45, -30.3, 0,                           !- X,Y,Z Vertex 2 {m}
  -27, -30.3, 0,                          !- X,Y,Z Vertex 3 {m}
  -27, -30.3, 13.2;                       !- X,Y,Z Vertex 4 {m}

Shading:Building:Detailed,
  Shading Surface 25,                     !- Name
  ,                                       !- Transmittance Schedule Name
  ,                                       !- Number of Vertices
  45, -50.3, 13.2,                        !- X,Y,Z Vertex 1 {m}
  45, -50.3, 0,                           !- X,Y,Z Vertex 2 {m}
  45, -30.3, 0,                           !- X,Y,Z Vertex 3 {m}
  45, -30.3, 13.2;                        !- X,Y,Z Vertex 4 {m}

Shading:Building:Detailed,
  Shading Surface 26,                     !- Name
  ,                                       !- Transmittance Schedule Name
  ,                                       !- Number of Vertices
  -27, -50.3, 13.2,                       !- X,Y,Z Vertex 1 {m}
  45, -50.3, 13.2,                        !- X,Y,Z Vertex 2 {m}
  45, -30.3, 13.2,                        !- X,Y,Z Vertex 3 {m}
  -27, -30.3, 13.2;                       !- X,Y,Z Vertex 4 {m}

Shading:Building:Detailed,
  Shading Surface 27,                     !- Name
  ,                                       !- Transmittance Schedule Name
  ,                                       !- Number of Vertices
  -27, -30.3, 13.2,                       !- X,Y,Z Vertex 1 {m}
  -27, -30.3, 0,                          !- X,Y,Z Vertex 2 {m}
  -27, -50.3, 0,                          !- X,Y,Z Vertex 3 {m}
  -27, -50.3, 13.2;                       !- X,Y,Z Vertex 4 {m}

Shading:Building:Detailed,
  Shading Surface 28,                     !- Name
  ,                                       !- Transmittance Schedule Name
  ,                                       !- Number of Vertices
  45, -50.3, 0,                           !- X,Y,Z Vertex 1 {m}
  -27, -50.3, 0,                          !- X,Y,Z Vertex 2 {m}
  -27, -30.3, 0,                          !- X,Y,Z Vertex 3 {m}
  45, -30.3, 0;                           !- X,Y,Z Vertex 4 {m}

Shading:Building:Detailed,
  Shading Surface 29,                     !- Name
  ,                                       !- Transmittance Schedule Name
  ,                                       !- Number of Vertices
  -27, -50.3, 13.2,                       !- X,Y,Z Vertex 1 {m}
  -27, -50.3, 0,                          !- X,Y,Z Vertex 2 {m}
  45, -50.3, 0,                           !- X,Y,Z Vertex 3 {m}
  45, -50.3, 13.2;                        !- X,Y,Z Vertex 4 {m}

Shading:Building:Detailed,
  Shading Surface 24,                     !- Name
  ,                                       !- Transmittance Schedule Name
  ,                                       !- Number of Vertices
  45, 9.99999999999999, 13.2,             !- X,Y,Z Vertex 1 {m}
  45, 9.99999999999999, 0,                !- X,Y,Z Vertex 2 {m}
  45, 30, 0,                              !- X,Y,Z Vertex 3 {m}
  45, 30, 13.2;                           !- X,Y,Z Vertex 4 {m}

Shading:Building:Detailed,
  Shading Surface 30,                     !- Name
  ,                                       !- Transmittance Schedule Name
  ,                                       !- Number of Vertices
  -27, 9.99999999999999, 13.2,            !- X,Y,Z Vertex 1 {m}
  -27, 9.99999999999999, 0,               !- X,Y,Z Vertex 2 {m}
  45, 9.99999999999999, 0,                !- X,Y,Z Vertex 3 {m}
  45, 9.99999999999999, 13.2;             !- X,Y,Z Vertex 4 {m}

Shading:Building:Detailed,
  Shading Surface 31,                     !- Name
  ,                                       !- Transmittance Schedule Name
  ,                                       !- Number of Vertices
  -27, 9.99999999999999, 13.2,            !- X,Y,Z Vertex 1 {m}
  45, 9.99999999999999, 13.2,             !- X,Y,Z Vertex 2 {m}
  45, 30, 13.2,                           !- X,Y,Z Vertex 3 {m}
  -27, 30, 13.2;                          !- X,Y,Z Vertex 4 {m}

Shading:Building:Detailed,
  Shading Surface 32,                     !- Name
  ,                                       !- Transmittance Schedule Name
  ,                                       !- Number of Vertices
  -27, 30, 13.2,                          !- X,Y,Z Vertex 1 {m}
  -27, 30, 0,                             !- X,Y,Z Vertex 2 {m}
  -27, 9.99999999999999, 0,               !- X,Y,Z Vertex 3 {m}
  -27, 9.99999999999999, 13.2;            !- X,Y,Z Vertex 4 {m}

Shading:Building:Detailed,
  Shading Surface 33,                     !- Name
  ,                                       !- Transmittance Schedule Name
  ,                                       !- Number of Vertices
  45, 30, 13.2,                           !- X,Y,Z Vertex 1 {m}
  45, 30, 0,                              !- X,Y,Z Vertex 2 {m}
  -27, 30, 0,                             !- X,Y,Z Vertex 3 {m}
  -27, 30, 13.2;                          !- X,Y,Z Vertex 4 {m}

Shading:Building:Detailed,
  Shading Surface 34,                     !- Name
  ,                                       !- Transmittance Schedule Name
  ,                                       !- Number of Vertices
  45, 9.99999999999999, 0,                !- X,Y,Z Vertex 1 {m}
  -27, 9.99999999999999, 0,               !- X,Y,Z Vertex 2 {m}
  -27, 30, 0,                             !- X,Y,Z Vertex 3 {m}
  45, 30, 0;                              !- X,Y,Z Vertex 4 {m}

Zone,
  Th Zone Principal_2_Right,              !- Name
  90,                                     !- Direction of Relative North {deg}
  18,                                     !- X Origin {m}
  -20.3,                                  !- Y Origin {m}
  5.7,                                    !- Z Origin {m}
  ,                                       !- Type
  1,                                      !- Multiplier
  ,                                       !- Ceiling Height {m}
  ,                                       !- Volume {m3}
  ,                                       !- Floor Area {m2}
  ,                                       !- Zone Inside Convection Algorithm
  ,                                       !- Zone Outside Convection Algorithm
  Yes;                                    !- Part of Total Floor Area

Space,
  Principal_2_Right,                      !- Name
  Th Zone Principal_2_Right,              !- Zone Name
  ,                                       !- Ceiling Height {m}
  ,                                       !- Volume {m3}
  ,                                       !- Floor Area {m2}
  Apartments;                             !- Space Type

SpaceList,
  Apartments,                             !- Name
  Principal_1_Left,                       !- Space Name 1
  Retro_1_Left,                           !- Space Name 2
  Principal_2_Right,                      !- Space Name 3
  Principal_2_Left,                       !- Space Name 4
  Principal_3_Left,                       !- Space Name 5
  Principal_4_Left,                       !- Space Name 6
  Retro_2_Left,                           !- Space Name 7
  Retro_3_Left,                           !- Space Name 8
  Retro_3_Right,                          !- Space Name 9
  Retro_4_Left,                           !- Space Name 10
  Retro_1_Right,                          !- Space Name 11
  Retro_2_Right,                          !- Space Name 12
  Retro_4_Right,                          !- Space Name 13
  Principal_1_Right,                      !- Space Name 14
  Principal_3_Right,                      !- Space Name 15
  Principal_4_Right;                      !- Space Name 16

Lights,
  Lights 1,                               !- Name
  Apartments,                             !- Zone or ZoneList or Space or SpaceList Name
  Lights Use-Apartments,                  !- Schedule Name
  Watts/Area,                             !- Design Level Calculation Method
  ,                                       !- Lighting Level {W}
  1,                                      !- Watts per Zone Floor Area {W/m2}
  ,                                       !- Watts per Person {W/person}
  ,                                       !- Return Air Fraction
  ,                                       !- Fraction Radiant
  ,                                       !- Fraction Visible
  1,                                      !- Fraction Replaceable
  General;                                !- End-Use Subcategory

ScheduleTypeLimits,
  Fractional,                             !- Name
  0,                                      !- Lower Limit Value {BasedOnField A3}
  1,                                      !- Upper Limit Value {BasedOnField A3}
  Continuous;                             !- Numeric Type

Schedule:Day:Interval,
  Schedule Day 5,                         !- Name
  Fractional,                             !- Schedule Type Limits Name
  No,                                     !- Interpolate to Timestep
  06:00,                                  !- Time 1 {hh:mm}
  0,                                      !- Value Until Time 1
  10:00,                                  !- Time 2 {hh:mm}
  0.150000005960464,                      !- Value Until Time 2
  16:00,                                  !- Time 3 {hh:mm}
  0.0500000007450581,                     !- Value Until Time 3
  22:00,                                  !- Time 4 {hh:mm}
  0.200000002980232,                      !- Value Until Time 4
  24:00,                                  !- Time 5 {hh:mm}
  0.150000005960464;                      !- Value Until Time 5

Schedule:Week:Daily,
  Lights Use-Apartments Week Rule - Jan1-Dec31, !- Name
  Schedule Day 5,                         !- Sunday Schedule:Day Name
  Schedule Day 5,                         !- Monday Schedule:Day Name
  Schedule Day 5,                         !- Tuesday Schedule:Day Name
  Schedule Day 5,                         !- Wednesday Schedule:Day Name
  Schedule Day 5,                         !- Thursday Schedule:Day Name
  Schedule Day 5,                         !- Friday Schedule:Day Name
  Schedule Day 5,                         !- Saturday Schedule:Day Name
  Schedule Day 5,                         !- Holiday Schedule:Day Name
  Schedule Day 5,                         !- SummerDesignDay Schedule:Day Name
  Schedule Day 5,                         !- WinterDesignDay Schedule:Day Name
  Schedule Day 5,                         !- CustomDay1 Schedule:Day Name
  Schedule Day 5;                         !- CustomDay2 Schedule:Day Name

Schedule:Year,
  Lights Use-Apartments,                  !- Name
  Fractional,                             !- Schedule Type Limits Name
  Lights Use-Apartments Week Rule - Jan1-Dec31, !- Schedule:Week Name 1
  1,                                      !- Start Month 1
  1,                                      !- Start Day 1
  12,                                     !- End Month 1
  31;                                     !- End Day 1

People,
  People 1,                               !- Name
  Apartments,                             !- Zone or ZoneList or Space or SpaceList Name
  Occupancy-Apartment,                    !- Number of People Schedule Name
  People,                                 !- Number of People Calculation Method
  3,                                      !- Number of People
  ,                                       !- People per Floor Area {person/m2}
  ,                                       !- Floor Area per Person {m2/person}
  0.3,                                    !- Fraction Radiant
  ,                                       !- Sensible Heat Fraction
  Activity-Apartments;                    !- Activity Level Schedule Name

Schedule:Day:Interval,
  Schedule Day 8,                         !- Name
  Fractional,                             !- Schedule Type Limits Name
  No,                                     !- Interpolate to Timestep
  06:00,                                  !- Time 1 {hh:mm}
  1,                                      !- Value Until Time 1
  09:00,                                  !- Time 2 {hh:mm}
  0.5,                                    !- Value Until Time 2
  13:00,                                  !- Time 3 {hh:mm}
  0.100000001490116,                      !- Value Until Time 3
  16:00,                                  !- Time 4 {hh:mm}
  0.200000002980232,                      !- Value Until Time 4
  19:00,                                  !- Time 5 {hh:mm}
  0.5,                                    !- Value Until Time 5
  21:00,                                  !- Time 6 {hh:mm}
  0.800000011920929,                      !- Value Until Time 6
  24:00,                                  !- Time 7 {hh:mm}
  1;                                      !- Value Until Time 7

Schedule:Day:Interval,
  weekday 2,                              !- Name
  Fractional,                             !- Schedule Type Limits Name
  No,                                     !- Interpolate to Timestep
  06:00,                                  !- Time 1 {hh:mm}
  1,                                      !- Value Until Time 1
  09:00,                                  !- Time 2 {hh:mm}
  0.5,                                    !- Value Until Time 2
  13:00,                                  !- Time 3 {hh:mm}
  0.100000001490116,                      !- Value Until Time 3
  16:00,                                  !- Time 4 {hh:mm}
  0.200000002980232,                      !- Value Until Time 4
  19:00,                                  !- Time 5 {hh:mm}
  0.5,                                    !- Value Until Time 5
  21:00,                                  !- Time 6 {hh:mm}
  0.800000011920929,                      !- Value Until Time 6
  24:00,                                  !- Time 7 {hh:mm}
  1;                                      !- Value Until Time 7

Schedule:Week:Daily,
  Occupancy-Apartment Week Rule - Jan1-Dec31, !- Name
  Schedule Day 8,                         !- Sunday Schedule:Day Name
  weekday 2,                              !- Monday Schedule:Day Name
  weekday 2,                              !- Tuesday Schedule:Day Name
  weekday 2,                              !- Wednesday Schedule:Day Name
  weekday 2,                              !- Thursday Schedule:Day Name
  weekday 2,                              !- Friday Schedule:Day Name
  Schedule Day 8,                         !- Saturday Schedule:Day Name