!- Windows Line endings 

Version,
    23.2;                     !- Version Identifier

SimulationControl,
    Yes,                      !- Do Zone Sizing Calculation
    Yes,                      !- Do System Sizing Calculation
    No,                       !- Do Plant Sizing Calculation
    No,                       !- Run Simulation for Sizing Periods
    Yes,                      !- Run Simulation for Weather File Run Periods
    ,                         !- Do HVAC Sizing Simulation for Sizing Periods
    ;                         !- Maximum Number of HVAC Sizing Simulation Passes

Building,
    Building 1,               !- Name
    0,                        !- North Axis
    ,                         !- Terrain
    ,                         !- Loads Convergence Tolerance Value
    ,                         !- Temperature Convergence Tolerance Value
    ,                         !- Solar Distribution
    ,                         !- Maximum Number of Warmup Days
    ;                         !- Minimum Number of Warmup Days

ShadowCalculation,
    PolygonClipping,          !- Shading Calculation Method
    Periodic,                 !- Shading Calculation Update Frequency Method
    20,                       !- Shading Calculation Update Frequency
    15000,                    !- Maximum Figures in Shadow Overlap Calculations
    SutherlandHodgman,        !- Polygon Clipping Algorithm
    512,                      !- Pixel Counting Resolution
    SimpleSkyDiffuseModeling,    !- Sky Diffuse Modeling Algorithm
    No,                       !- Output External Shading Calculation Results
    No,                       !- Disable SelfShading Within Shading Zone Groups
    No;                       !- Disable SelfShading From Shading Zone Groups to Other Zones

SurfaceConvectionAlgorithm:Inside,
    TARP;                     !- Algorithm

SurfaceConvectionAlgorithm:Outside,
    DOE-2;                    !- Algorithm

HeatBalanceAlgorithm,
    ConductionTransferFunction,    !- Algorithm
    200;                      !- Surface Temperature Upper Limit

ZoneAirHeatBalanceAlgorithm,
    ThirdOrderBackwardDifference,    !- Algorithm
    No,                       !- Do Space Heat Balance for Sizing
    No;                       !- Do Space Heat Balance for Simulation

ZoneAirContaminantBalance,
    No;                       !- Carbon Dioxide Concentration

ZoneCapacitanceMultiplier:ResearchSpecial,
    Zone Capacitance Multiplier Research Special,    !- Name
    ,                         !- Zone or ZoneList Name
    ,                         !- Temperature Capacity Multiplier
    ,                         !- Humidity Capacity Multiplier
    ,                         !- Carbon Dioxide Capacity Multiplier
    ;                         !- Generic Contaminant Capacity Multiplier

Timestep,
    1;                        !- Number of Timesteps per Hour

ConvergenceLimits,
    1;                        !- Minimum System Timestep

Site:Location,
    Raimat,                   !- Name
    41.68,                    !- Latitude
    0.45,                     !- Longitude
    1,                        !- Time Zone
    286;                      !- Elevation

RunPeriod,
    Run Period 1,             !- Name
    1,                        !- Begin Month
    1,                        !- Begin Day of Month
    2006,                     !- Begin Year
    12,                       !- End Month
    31,                       !- End Day of Month
    2006,                     !- End Year
    Sunday,                   !- Day of Week for Start Day
    No,                       !- Use Weather File Holidays and Special Days
    No,                       !- Use Weather File Daylight Saving Period
    No,                       !- Apply Weekend Holiday Rule
    Yes,                      !- Use Weather File Rain Indicators
    Yes;                      !- Use Weather File Snow Indicators

ScheduleTypeLimits,
    Fractional,               !- Name
    0,                        !- Lower Limit Value
    1,                        !- Upper Limit Value
    Continuous;               !- Numeric Type

ScheduleTypeLimits,
    ActivityLevel,            !- Name
    0,                        !- Lower Limit Value
    ,                         !- Upper Limit Value
    Continuous,               !- Numeric Type
    activitylevel;            !- Unit Type

ScheduleTypeLimits,
    ActivityLevel 12,         !- Name
    0,                        !- Lower Limit Value
    ,                         !- Upper Limit Value
    Continuous,               !- Numeric Type
    activitylevel;            !- Unit Type

ScheduleTypeLimits,
    ActivityLevel 13,         !- Name
    0,                        !- Lower Limit Value
    ,                         !- Upper Limit Value
    Continuous,               !- Numeric Type
    activitylevel;            !- Unit Type

ScheduleTypeLimits,
    ActivityLevel 5,          !- Name
    0,                        !- Lower Limit Value
    ,                         !- Upper Limit Value
    Continuous,               !- Numeric Type
    activitylevel;            !- Unit Type

ScheduleTypeLimits,
    Always On Discrete Limits,    !- Name
    0,                        !- Lower Limit Value
    1,                        !- Upper Limit Value
    Discrete,                 !- Numeric Type
    availability;             !- Unit Type

ScheduleTypeLimits,
    Capacity,                 !- Name
    0,                        !- Lower Limit Value
    ,                         !- Upper Limit Value
    Continuous,               !- Numeric Type
    capacity;                 !- Unit Type

ScheduleTypeLimits,
    Any Number;               !- Name

ScheduleTypeLimits,
    DeltaTemperature,         !- Name
    ,                         !- Lower Limit Value
    ,                         !- Upper Limit Value
    Continuous,               !- Numeric Type
    deltatemperature;         !- Unit Type

ScheduleTypeLimits,
    Dimensionless,            !- Name
    ,                         !- Lower Limit Value
    ,                         !- Upper Limit Value
    Continuous;               !- Numeric Type

ScheduleTypeLimits,
    Dimensionless 1,          !- Name
    -1,                       !- Lower Limit Value
    1,                        !- Upper Limit Value
    Continuous;               !- Numeric Type

ScheduleTypeLimits,
    Dimensionless 2,          !- Name
    0.1,                      !- Lower Limit Value
    1000,                     !- Upper Limit Value
    Continuous;               !- Numeric Type

ScheduleTypeLimits,
    Dimensionless 3,          !- Name
    0,                        !- Lower Limit Value
    1,                        !- Upper Limit Value
    Continuous,               !- Numeric Type
    dimensionless;            !- Unit Type

ScheduleTypeLimits,
    Fraction,                 !- Name
    0,                        !- Lower Limit Value
    1,                        !- Upper Limit Value
    CONTINUOUS;               !- Numeric Type

ScheduleTypeLimits,
    OnOff,                    !- Name
    0,                        !- Lower Limit Value
    1,                        !- Upper Limit Value
    Discrete,                 !- Numeric Type
    availability;             !- Unit Type

ScheduleTypeLimits,
    OnOff hvac_library,       !- Name
    0,                        !- Lower Limit Value
    1,                        !- Upper Limit Value
    Discrete,                 !- Numeric Type
    availability;             !- Unit Type

ScheduleTypeLimits,
    Percent,                  !- Name
    0,                        !- Lower Limit Value
    100,                      !- Upper Limit Value
    Continuous,               !- Numeric Type
    percent;                  !- Unit Type

ScheduleTypeLimits,
    Temperature,              !- Name
    -50,                      !- Lower Limit Value
    50,                       !- Upper Limit Value
    Continuous,               !- Numeric Type
    temperature;              !- Unit Type

ScheduleTypeLimits,
    Temperature 11,           !- Name
    ,                         !- Lower Limit Value
    ,                         !- Upper Limit Value
    Continuous,               !- Numeric Type
    temperature;              !- Unit Type

ScheduleTypeLimits,
    Temperature 3,            !- Name
    ,                         !- Lower Limit Value
    ,                         !- Upper Limit Value
    Continuous,               !- Numeric Type
    temperature;              !- Unit Type

ScheduleTypeLimits,
    Temperature 36,           !- Name
    ,                         !- Lower Limit Value
    ,                         !- Upper Limit Value
    Continuous,               !- Numeric Type
    temperature;              !- Unit Type

ScheduleTypeLimits,
    Temperature 37,           !- Name
    ,                         !- Lower Limit Value
    ,                         !- Upper Limit Value
    Continuous,               !- Numeric Type
    temperature;              !- Unit Type

ScheduleTypeLimits,
    Temperature 38,           !- Name
    0,                        !- Lower Limit Value
    50,                       !- Upper Limit Value
    Continuous,               !- Numeric Type
    temperature;              !- Unit Type

ScheduleTypeLimits,
    Temperature 4,            !- Name
    ,                         !- Lower Limit Value
    ,                         !- Upper Limit Value
    Continuous,               !- Numeric Type
    temperature;              !- Unit Type

ScheduleTypeLimits,
    Temperature 5,            !- Name
    ,                         !- Lower Limit Value
    ,                         !- Upper Limit Value
    Continuous,               !- Numeric Type
    temperature;              !- Unit Type

ScheduleTypeLimits,
    Velocity,                 !- Name
    0,                        !- Lower Limit Value
    ,                         !- Upper Limit Value
    Continuous,               !- Numeric Type
    velocity;                 !- Unit Type

Schedule:Day:Interval,
    Schedule Day 5,           !- Name
    Fractional,               !- Schedule Type Limits Name
    No,                       !- Interpolate to Timestep
    06:00,                    !- Time 1
    0,                        !- Value Until Time 1
    10:00,                    !- Time 2
    0.150000005960464,        !- Value Until Time 2
    16:00,                    !- Time 3
    0.0500000007450581,       !- Value Until Time 3
    22:00,                    !- Time 4
    0.200000002980232,        !- Value Until Time 4
    24:00,                    !- Time 5
    0.150000005960464;        !- Value Until Time 5

Schedule:Day:Interval,
    Schedule Day 8,           !- Name
    Fractional,               !- Schedule Type Limits Name
    No,                       !- Interpolate to Timestep
    06:00,                    !- Time 1
    1,                        !- Value Until Time 1
    09:00,                    !- Time 2
    0.5,                      !- Value Until Time 2
    13:00,                    !- Time 3
    0.100000001490116,        !- Value Until Time 3
    16:00,                    !- Time 4
    0.200000002980232,        !- Value Until Time 4
    19:00,                    !- Time 5
    0.5,                      !- Value Until Time 5
    21:00,                    !- Time 6
    0.800000011920929,        !- Value Until Time 6
    24:00,                    !- Time 7
    1;                        !- Value Until Time 7

Schedule:Day:Interval,
    weekday 2,                !- Name
    Fractional,               !- Schedule Type Limits Name
    No,                       !- Interpolate to Timestep
    06:00,                    !- Time 1
    1,                        !- Value Until Time 1
    09:00,                    !- Time 2
    0.5,                      !- Value Until Time 2
    13:00,                    !- Time 3
    0.100000001490116,        !- Value Until Time 3
    16:00,                    !- Time 4
    0.200000002980232,        !- Value Until Time 4
    19:00,                    !- Time 5
    0.5,                      !- Value Until Time 5
    21:00,                    !- Time 6
    0.800000011920929,        !- Value Until Time 6
    24:00,                    !- Time 7
    1;                        !- Value Until Time 7

Schedule:Day:Interval,
    Weekend,                  !- Name
    Fractional,               !- Schedule Type Limits Name
    No,                       !- Interpolate to Timestep
    07:00,                    !- Time 1
    1,                        !- Value Until Time 1
    22:00,                    !- Time 2
    0.8,                      !- Value Until Time 2
    24:00,                    !- Time 3
    1;                        !- Value Until Time 3

Schedule:Day:Interval,
    Schedule Day 14,          !- Name
    ActivityLevel,            !- Schedule Type Limits Name
    No,                       !- Interpolate to Timestep
    07:00,                    !- Time 1
    99.9999923706055,         !- Value Until Time 1
    22:00,                    !- Time 2
    150,                      !- Value Until Time 2
    24:00,                    !- Time 3
    124.999992370605;         !- Value Until Time 3

Schedule:Day:Interval,
    Schedule Day 31,          !- Name
    ActivityLevel,            !- Schedule Type Limits Name
    No,                       !- Interpolate to Timestep
    24:00,                    !- Time 1
    100;                      !- Value Until Time 1

Schedule:Day:Interval,
    Schedule Day 2,           !- Name
    Fractional,               !- Schedule Type Limits Name
    No,                       !- Interpolate to Timestep
    07:00,                    !- Time 1
    0.5,                      !- Value Until Time 1
    09:00,                    !- Time 2
    0.699999988079071,        !- Value Until Time 2
    11:00,                    !- Time 3
    0.5,                      !- Value Until Time 3
    15:00,                    !- Time 4
    0.600000023841858,        !- Value Until Time 4
    17:00,                    !- Time 5
    0.5,                      !- Value Until Time 5
    19:00,                    !- Time 6
    0.699999988079071,        !- Value Until Time 6
    22:00,                    !- Time 7
    0.800000011920929,        !- Value Until Time 7
    24:00,                    !- Time 8
    0.600000023841858;        !- Value Until Time 8

Schedule:Day:Interval,
    Schedule Day 6,           !- Name
    Fractional,               !- Schedule Type Limits Name
    No,                       !- Interpolate to Timestep
    06:00,                    !- Time 1
    0,                        !- Value Until Time 1
    09:00,                    !- Time 2
    0.0500000007450581,       !- Value Until Time 2
    19:00,                    !- Time 3
    0.00999999977648258,      !- Value Until Time 3
    22:00,                    !- Time 4
    0.0500000007450581,       !- Value Until Time 4
    24:00,                    !- Time 5
    0;                        !- Value Until Time 5

Schedule:Day:Interval,
    Schedule Day 10,          !- Name
    Fractional,               !- Schedule Type Limits Name
    No,                       !- Interpolate to Timestep
    07:00,                    !- Time 1
    0,                        !- Value Until Time 1
    09:15,                    !- Time 2
    0.0500000007450581,       !- Value Until Time 2
    13:00,                    !- Time 3
    0.0199999995529652,       !- Value Until Time 3
    16:00,                    !- Time 4
    0.0500000007450581,       !- Value Until Time 4
    22:00,                    !- Time 5
    0.0199999995529652,       !- Value Until Time 5
    24:00,                    !- Time 6
    0;                        !- Value Until Time 6

Schedule:Day:Interval,
    Schedule Day 15,          !- Name
    ActivityLevel,            !- Schedule Type Limits Name
    No,                       !- Interpolate to Timestep
    24:00,                    !- Time 1
    180;                      !- Value Until Time 1

Schedule:Day:Interval,
    Schedule Day 3,           !- Name
    Fractional,               !- Schedule Type Limits Name
    No,                       !- Interpolate to Timestep
    08:00,                    !- Time 1
    0,                        !- Value Until Time 1
    10:00,                    !- Time 2
    0.200000002980232,        !- Value Until Time 2
    20:00,                    !- Time 3
    0.0500000007450581,       !- Value Until Time 3
    22:00,                    !- Time 4
    0.200000002980232,        !- Value Until Time 4
    24:00,                    !- Time 5
    0;                        !- Value Until Time 5

Schedule:Day:Interval,
    Schedule Day 28,          !- Name
    Fractional,               !- Schedule Type Limits Name
    No,                       !- Interpolate to Timestep
    24:00,                    !- Time 1
    0;                        !- Value Until Time 1

Schedule:Day:Interval,
    Schedule Day 7,           !- Name
    Fractional,               !- Schedule Type Limits Name
    No,                       !- Interpolate to Timestep
    08:00,                    !- Time 1
    0,                        !- Value Until Time 1
    13:00,                    !- Time 2
    1,                        !- Value Until Time 2
    16:00,                    !- Time 3
    0,                        !- Value Until Time 3
    21:00,                    !- Time 4
    1,                        !- Value Until Time 4
    24:00,                    !- Time 5
    0;                        !- Value Until Time 5

Schedule:Day:Interval,
    Sunday,                   !- Name
    Fractional,               !- Schedule Type Limits Name
    No,                       !- Interpolate to Timestep
    24:00,                    !- Time 1
    0;                        !- Value Until Time 1

Schedule:Day:Interval,
    Weekday,                  !- Name
    Fractional,               !- Schedule Type Limits Name
    No,                       !- Interpolate to Timestep
    09:00,                    !- Time 1
    0,                        !- Value Until Time 1
    10:00,                    !- Time 2
    0.1,                      !- Value Until Time 2
    12:00,                    !- Time 3
    0.3,                      !- Value Until Time 3
    13:00,                    !- Time 4
    0.7,                      !- Value Until Time 4
    14:00,                    !- Time 5
    0.6,                      !- Value Until Time 5
    17:00,                    !- Time 6
    0,                        !- Value Until Time 6
    19:00,                    !- Time 7
    0.9,                      !- Value Until Time 7
    21:00,                    !- Time 8
    1,                        !- Value Until Time 8
    24:00,                    !- Time 9
    0;                        !- Value Until Time 9

Schedule:Day:Interval,
    Saturday,                 !- Name
    Fractional,               !- Schedule Type Limits Name
    No,                       !- Interpolate to Timestep
    08:00,                    !- Time 1
    0,                        !- Value Until Time 1
    09:00,                    !- Time 2
    0.100000008940697,        !- Value Until Time 2
    10:00,                    !- Time 3
    0.300000011920929,        !- Value Until Time 3
    11:00,                    !- Time 4
    0.600000023841858,        !- Value Until Time 4
    12:00,                    !- Time 5
    0.900000035762787,        !- Value Until Time 5
    13:00,                    !- Time 6
    1,                        !- Value Until Time 6
    16:00,                    !- Time 7
    0,                        !- Value Until Time 7
    18:00,                    !- Time 8
    0.300000011920929,        !- Value Until Time 8
    21:00,                    !- Time 9
    0.449999988079071,        !- Value Until Time 9
    24:00,                    !- Time 10
    0;                        !- Value Until Time 10

Schedule:Day:Interval,
    Schedule Day 9,           !- Name
    Fractional,               !- Schedule Type Limits Name
    No,                       !- Interpolate to Timestep
    08:00,                    !- Time 1
    0,                        !- Value Until Time 1
    09:00,                    !- Time 2
    0.100000001490116,        !- Value Until Time 2
    11:00,                    !- Time 3
    0.300000011920929,        !- Value Until Time 3
    12:00,                    !- Time 4
    0.699999988079071,        !- Value Until Time 4
    13:00,                    !- Time 5
    0.600000023841858,        !- Value Until Time 5
    16:00,                    !- Time 6
    0,                        !- Value Until Time 6
    17:00,                    !- Time 7
    0.600000023841858,        !- Value Until Time 7
    18:00,                    !- Time 8
    0.899999976158142,        !- Value Until Time 8
    19:00,                    !- Time 9
    1,                        !- Value Until Time 9
    20:00,                    !- Time 10
    0.899999976158142,        !- Value Until Time 10
    21:00,                    !- Time 11
    0.699999988079071,        !- Value Until Time 11
    24:00,                    !- Time 12
    0;                        !- Value Until Time 12

Schedule:Day:Interval,
    Schedule Day 16,          !- Name
    ActivityLevel,            !- Schedule Type Limits Name
    No,                       !- Interpolate to Timestep
    24:00,                    !- Time 1
    170;                      !- Value Until Time 1

Schedule:Day:Interval,
    Schedule Day 29,          !- Name
    Fractional,               !- Schedule Type Limits Name
    No,                       !- Interpolate to Timestep
    24:00,                    !- Time 1
    0;                        !- Value Until Time 1

Schedule:Day:Interval,
    Schedule Day 4,           !- Name
    Fractional,               !- Schedule Type Limits Name
    No,                       !- Interpolate to Timestep
    08:00,                    !- Time 1
    0,                        !- Value Until Time 1
    13:00,                    !- Time 2
    1,                        !- Value Until Time 2
    16:00,                    !- Time 3
    0,                        !- Value Until Time 3
    21:00,                    !- Time 4
    1,                        !- Value Until Time 4
    24:00,                    !- Time 5
    0;                        !- Value Until Time 5

Schedule:Day:Interval,
    Large Office Activity Default Schedule,    !- Name
    ActivityLevel 5,          !- Schedule Type Limits Name
    No,                       !- Interpolate to Timestep
    24:00,                    !- Time 1
    120;                      !- Value Until Time 1

Schedule:Day:Interval,
    Large Office Activity Summer Design Day,    !- Name
    ActivityLevel 5,          !- Schedule Type Limits Name
    No,                       !- Interpolate to Timestep
    24:00,                    !- Time 1
    120;                      !- Value Until Time 1

Schedule:Day:Interval,
    Large Office Activity Winter Design Day,    !- Name
    ActivityLevel 5,          !- Schedule Type Limits Name
    No,                       !- Interpolate to Timestep
    24:00,                    !- Time 1
    120;                      !- Value Until Time 1

Schedule:Day:Interval,
    Large Office Bldg Equip Default Schedule,    !- Name
    Fractional,               !- Schedule Type Limits Name
    No,                       !- Interpolate to Timestep
    08:00,                    !- Time 1
    0.4,                      !- Value Until Time 1
    12:00,                    !- Time 2
    0.9,                      !- Value Until Time 2
    13:00,                    !- Time 3
    0.8,                      !- Value Until Time 3
    17:00,                    !- Time 4
    0.9,                      !- Value Until Time 4
    18:00,                    !- Time 5
    0.8,                      !- Value Until Time 5
    20:00,                    !- Time 6
    0.6,                      !- Value Until Time 6
    22:00,                    !- Time 7
    0.5,                      !- Value Until Time 7
    24:00,                    !- Time 8
    0.4;                      !- Value Until Time 8

Schedule:Day:Interval,
    Large Office Bldg Equip Rule 1 Day Schedule,    !- Name
    Fractional,               !- Schedule Type Limits Name
    No,                       !- Interpolate to Timestep
    24:00,                    !- Time 1
    0.3;                      !- Value Until Time 1

Schedule:Day:Interval,
    Large Office Bldg Equip Rule 2 Day Schedule,    !- Name
    Fractional,               !- Schedule Type Limits Name
    No,                       !- Interpolate to Timestep
    06:00,                    !- Time 1
    0.3,                      !- Value Until Time 1
    08:00,                    !- Time 2
    0.4,                      !- Value Until Time 2
    14:00,                    !- Time 3
    0.5,                      !- Value Until Time 3
    17:00,                    !- Time 4
    0.35,                     !- Value Until Time 4
    24:00,                    !- Time 5
    0.3;                      !- Value Until Time 5

Schedule:Day:Interval,
    Large Office Bldg Equip Summer Design Day,    !- Name
    Fractional,               !- Schedule Type Limits Name
    No,                       !- Interpolate to Timestep
    24:00,                    !- Time 1
    1;                        !- Value Until Time 1

Schedule:Day:Interval,
    Large Office Bldg Equip Winter Design Day,    !- Name
    Fractional,               !- Schedule Type Limits Name
    No,                       !- Interpolate to Timestep
    24:00,                    !- Time 1
    0;                        !- Value Until Time 1

Schedule:Day:Interval,
    Large Office Bldg Light Default Schedule,    !- Name
    Fractional,               !- Schedule Type Limits Name
    No,                       !- Interpolate to Timestep
    05:00,                    !- Time 1
    0.05,                     !- Value Until Time 1
    07:00,                    !- Time 2
    0.1,                      !- Value Until Time 2
    08:00,                    !- Time 3
    0.3,                      !- Value Until Time 3
    17:00,                    !- Time 4
    0.9,                      !- Value Until Time 4
    18:00,                    !- Time 5
    0.7,                      !- Value Until Time 5
    20:00,                    !- Time 6
    0.5,                      !- Value Until Time 6
    22:00,                    !- Time 7
    0.3,                      !- Value Until Time 7
    23:00,                    !- Time 8
    0.1,                      !- Value Until Time 8
    24:00,                    !- Time 9
    0.05;                     !- Value Until Time 9

Schedule:Day:Interval,
    Large Office Bldg Light Rule 1 Day Schedule,    !- Name
    Fractional,               !- Schedule Type Limits Name
    No,                       !- Interpolate to Timestep
    24:00,                    !- Time 1
    0.05;                     !- Value Until Time 1

Schedule:Day:Interval,
    Large Office Bldg Light Rule 2 Day Schedule,    !- Name
    Fractional,               !- Schedule Type Limits Name
    No,                       !- Interpolate to Timestep
    06:00,                    !- Time 1
    0.05,                     !- Value Until Time 1
    08:00,                    !- Time 2
    0.1,                      !- Value Until Time 2
    14:00,                    !- Time 3
    0.5,                      !- Value Until Time 3
    17:00,                    !- Time 4
    0.15,                     !- Value Until Time 4
    24:00,                    !- Time 5
    0.05;                     !- Value Until Time 5

Schedule:Day:Interval,
    Large Office Bldg Light Summer Design Day,    !- Name
    Fractional,               !- Schedule Type Limits Name
    No,                       !- Interpolate to Timestep
    24:00,                    !- Time 1
    1;                        !- Value Until Time 1

Schedule:Day:Interval,
    Large Office Bldg Light Winter Design Day,    !- Name
    Fractional,               !- Schedule Type Limits Name
    No,                       !- Interpolate to Timestep
    24:00,                    !- Time 1
    0;                        !- Value Until Time 1

Schedule:Day:Interval,
    Large Office Bldg Occ Default Schedule,    !- Name
    Fractional,               !- Schedule Type Limits Name
    No,                       !- Interpolate to Timestep
    06:00,                    !- Time 1
    0,                        !- Value Until Time 1
    07:00,                    !- Time 2
    0.1,                      !- Value Until Time 2
    08:00,                    !- Time 3
    0.2,                      !- Value Until Time 3
    12:00,                    !- Time 4
    0.95,                     !- Value Until Time 4
    13:00,                    !- Time 5
    0.5,                      !- Value Until Time 5
    17:00,                    !- Time 6
    0.95,                     !- Value Until Time 6
    18:00,                    !- Time 7
    0.7,                      !- Value Until Time 7
    20:00,                    !- Time 8
    0.4,                      !- Value Until Time 8
    22:00,                    !- Time 9
    0.1,                      !- Value Until Time 9
    24:00,                    !- Time 10
    0.05;                     !- Value Until Time 10

Schedule:Day:Interval,
    Large Office Bldg Occ Rule 1 Day Schedule,    !- Name
    Fractional,               !- Schedule Type Limits Name
    No,                       !- Interpolate to Timestep
    24:00,                    !- Time 1
    0;                        !- Value Until Time 1

Schedule:Day:Interval,
    Large Office Bldg Occ Rule 2 Day Schedule,    !- Name
    Fractional,               !- Schedule Type Limits Name
    No,                       !- Interpolate to Timestep
    06:00,                    !- Time 1
    0,                        !- Value Until Time 1